
OS:Version,
  {c4bedc2f-8de1-4abd-ae0b-a653cc32352e}, !- Handle
  3.10.0;                                 !- Version Identifier

OS:SimulationControl,
  {f62443e6-7a87-4c0a-9cb4-4b6cbc9bc931}, !- Handle
  ,                                       !- Do Zone Sizing Calculation
  ,                                       !- Do System Sizing Calculation
  ,                                       !- Do Plant Sizing Calculation
  No,                                     !- Run Simulation for Sizing Periods
  Yes,                                    !- Run Simulation for Weather File Run Periods
  ,                                       !- Loads Convergence Tolerance Value {W}
  ,                                       !- Temperature Convergence Tolerance Value {deltaC}
  FullExterior,                           !- Solar Distribution
  50;                                     !- Maximum Number of Warmup Days

OS:YearDescription,
  {f23d74d2-acea-401f-8ce1-3ffdc8436b3a}, !- Handle
  2009,                                   !- Calendar Year
  ,                                       !- Day of Week for Start Day
  ;                                       !- Is Leap Year

OS:RunPeriod,
  {d26698c3-5fd2-4566-ac8d-87ef1b6b8fe2}, !- Handle
  CA_Title24_2025_LOS-ANGELES-USC,        !- Name
  1,                                      !- Begin Month
  1,                                      !- Begin Day of Month
  12,                                     !- End Month
  31,                                     !- End Day of Month
  No,                                     !- Use Weather File Holidays and Special Days
  No,                                     !- Use Weather File Daylight Saving Period
  Yes,                                    !- Apply Weekend Holiday Rule
  ,                                       !- Use Weather File Rain Indicators
  ,                                       !- Use Weather File Snow Indicators
  ;                                       !- Number of Times Runperiod to be Repeated

OS:Site,
  {77691233-e7dc-4351-a4e4-dfbb1d9f81aa}, !- Handle
  LOS ANGELES USC,                        !- Name
  38.69,                                  !- Latitude {deg}
  -121.6,                                 !- Longitude {deg}
  -8,                                     !- Time Zone {hr}
  54.5592,                                !- Elevation {m}
  Suburbs;                                !- Terrain

OS:SizingPeriod:DesignDay,
  {b67b9468-bacb-4542-815c-638852470a0e}, !- Handle
  LOS ANGELES USC Ann Htg 99.6% Condns DB, !- Name
  6.2,                                    !- Maximum Dry-Bulb Temperature {C}
  0,                                      !- Daily Dry-Bulb Temperature Range {deltaC}
  100663,                                 !- Barometric Pressure {Pa}
  0.6,                                    !- Wind Speed {m/s}
  20,                                     !- Wind Direction {deg}
  0,                                      !- Sky Clearness
  No,                                     !- Rain Indicator
  No,                                     !- Snow Indicator
  21,                                     !- Day of Month
  12,                                     !- Month
  WinterDesignDay,                        !- Day Type
  No,                                     !- Daylight Saving Time Indicator
  Wetbulb,                                !- Humidity Condition Type
  ,                                       !- Humidity Condition Day Schedule Name
  6.2,                                    !- Wetbulb or DewPoint at Maximum Dry-Bulb {C}
  ,                                       !- Humidity Ratio at Maximum Dry-Bulb {kgWater/kgDryAir}
  ,                                       !- Enthalpy at Maximum Dry-Bulb {J/kg}
  DefaultMultipliers,                     !- Dry-Bulb Temperature Range Modifier Type
  ,                                       !- Dry-Bulb Temperature Range Modifier Day Schedule Name
  ASHRAEClearSky;                         !- Solar Model Indicator

OS:SizingPeriod:DesignDay,
  {96c3ef5f-45f7-4728-b575-1eed0eb63aed}, !- Handle
  LOS ANGELES USC  June .4% Condns DB=>MCWB, !- Name
  32.3,                                   !- Maximum Dry-Bulb Temperature {C}
  8.2,                                    !- Daily Dry-Bulb Temperature Range {deltaC}
  100663,                                 !- Barometric Pressure {Pa}
  0.6,                                    !- Wind Speed {m/s}
  260,                                    !- Wind Direction {deg}
  ,                                       !- Sky Clearness
  No,                                     !- Rain Indicator
  No,                                     !- Snow Indicator
  21,                                     !- Day of Month
  6,                                      !- Month
  SummerDesignDay,                        !- Day Type
  No,                                     !- Daylight Saving Time Indicator
  Wetbulb,                                !- Humidity Condition Type
  ,                                       !- Humidity Condition Day Schedule Name
  20.7,                                   !- Wetbulb or DewPoint at Maximum Dry-Bulb {C}
  ,                                       !- Humidity Ratio at Maximum Dry-Bulb {kgWater/kgDryAir}
  ,                                       !- Enthalpy at Maximum Dry-Bulb {J/kg}
  DefaultMultipliers,                     !- Dry-Bulb Temperature Range Modifier Type
  ,                                       !- Dry-Bulb Temperature Range Modifier Day Schedule Name
  ASHRAETau,                              !- Solar Model Indicator
  ,                                       !- Beam Solar Day Schedule Name
  ,                                       !- Diffuse Solar Day Schedule Name
  0.405,                                  !- ASHRAE Clear Sky Optical Depth for Beam Irradiance {dimensionless}
  2.324;                                  !- ASHRAE Clear Sky Optical Depth for Diffuse Irradiance {dimensionless}

OS:SizingPeriod:DesignDay,
  {4114b34d-bb1a-4604-a94e-0c1d48e6e99a}, !- Handle
  LOS ANGELES USC  July .4% Condns DB=>MCWB, !- Name
  33.8,                                   !- Maximum Dry-Bulb Temperature {C}
  9.2,                                    !- Daily Dry-Bulb Temperature Range {deltaC}
  100663,                                 !- Barometric Pressure {Pa}
  0.6,                                    !- Wind Speed {m/s}
  260,                                    !- Wind Direction {deg}
  ,                                       !- Sky Clearness
  No,                                     !- Rain Indicator
  No,                                     !- Snow Indicator
  21,                                     !- Day of Month
  7,                                      !- Month
  SummerDesignDay,                        !- Day Type
  No,                                     !- Daylight Saving Time Indicator
  Wetbulb,                                !- Humidity Condition Type
  ,                                       !- Humidity Condition Day Schedule Name
  22.1,                                   !- Wetbulb or DewPoint at Maximum Dry-Bulb {C}
  ,                                       !- Humidity Ratio at Maximum Dry-Bulb {kgWater/kgDryAir}
  ,                                       !- Enthalpy at Maximum Dry-Bulb {J/kg}
  DefaultMultipliers,                     !- Dry-Bulb Temperature Range Modifier Type
  ,                                       !- Dry-Bulb Temperature Range Modifier Day Schedule Name
  ASHRAETau,                              !- Solar Model Indicator
  ,                                       !- Beam Solar Day Schedule Name
  ,                                       !- Diffuse Solar Day Schedule Name
  0.402,                                  !- ASHRAE Clear Sky Optical Depth for Beam Irradiance {dimensionless}
  2.401;                                  !- ASHRAE Clear Sky Optical Depth for Diffuse Irradiance {dimensionless}

OS:SizingPeriod:DesignDay,
  {f08e18a8-b251-4749-ac2b-f9e0a1cbb2d6}, !- Handle
  LOS ANGELES USC  August .4% Condns DB=>MCWB, !- Name
  33.7,                                   !- Maximum Dry-Bulb Temperature {C}
  9.6,                                    !- Daily Dry-Bulb Temperature Range {deltaC}
  100663,                                 !- Barometric Pressure {Pa}
  0.6,                                    !- Wind Speed {m/s}
  260,                                    !- Wind Direction {deg}
  ,                                       !- Sky Clearness
  No,                                     !- Rain Indicator
  No,                                     !- Snow Indicator
  21,                                     !- Day of Month
  8,                                      !- Month
  SummerDesignDay,                        !- Day Type
  No,                                     !- Daylight Saving Time Indicator
  Wetbulb,                                !- Humidity Condition Type
  ,                                       !- Humidity Condition Day Schedule Name
  21.2,                                   !- Wetbulb or DewPoint at Maximum Dry-Bulb {C}
  ,                                       !- Humidity Ratio at Maximum Dry-Bulb {kgWater/kgDryAir}
  ,                                       !- Enthalpy at Maximum Dry-Bulb {J/kg}
  DefaultMultipliers,                     !- Dry-Bulb Temperature Range Modifier Type
  ,                                       !- Dry-Bulb Temperature Range Modifier Day Schedule Name
  ASHRAETau,                              !- Solar Model Indicator
  ,                                       !- Beam Solar Day Schedule Name
  ,                                       !- Diffuse Solar Day Schedule Name
  0.383,                                  !- ASHRAE Clear Sky Optical Depth for Beam Irradiance {dimensionless}
  2.433;                                  !- ASHRAE Clear Sky Optical Depth for Diffuse Irradiance {dimensionless}

OS:SizingPeriod:DesignDay,
  {d79c8a69-2547-4df9-9a9e-a7142250a7be}, !- Handle
  LOS ANGELES USC  September .4% Condns DB=>MCWB, !- Name
  36.3,                                   !- Maximum Dry-Bulb Temperature {C}
  9.8,                                    !- Daily Dry-Bulb Temperature Range {deltaC}
  100663,                                 !- Barometric Pressure {Pa}
  0.6,                                    !- Wind Speed {m/s}
  260,                                    !- Wind Direction {deg}
  ,                                       !- Sky Clearness
  No,                                     !- Rain Indicator
  No,                                     !- Snow Indicator
  21,                                     !- Day of Month
  9,                                      !- Month
  SummerDesignDay,                        !- Day Type
  No,                                     !- Daylight Saving Time Indicator
  Wetbulb,                                !- Humidity Condition Type
  ,                                       !- Humidity Condition Day Schedule Name
  20.1,                                   !- Wetbulb or DewPoint at Maximum Dry-Bulb {C}
  ,                                       !- Humidity Ratio at Maximum Dry-Bulb {kgWater/kgDryAir}
  ,                                       !- Enthalpy at Maximum Dry-Bulb {J/kg}
  DefaultMultipliers,                     !- Dry-Bulb Temperature Range Modifier Type
  ,                                       !- Dry-Bulb Temperature Range Modifier Day Schedule Name
  ASHRAETau,                              !- Solar Model Indicator
  ,                                       !- Beam Solar Day Schedule Name
  ,                                       !- Diffuse Solar Day Schedule Name
  0.369,                                  !- ASHRAE Clear Sky Optical Depth for Beam Irradiance {dimensionless}
  2.465;                                  !- ASHRAE Clear Sky Optical Depth for Diffuse Irradiance {dimensionless}

OS:SizingPeriod:DesignDay,
  {8a4aeda9-59ac-4df5-bc5b-3ef183a05dc9}, !- Handle
  LOS ANGELES USC  October .4% Condns DB=>MCWB, !- Name
  35.2,                                   !- Maximum Dry-Bulb Temperature {C}
  9.9,                                    !- Daily Dry-Bulb Temperature Range {deltaC}
  100663,                                 !- Barometric Pressure {Pa}
  0.6,                                    !- Wind Speed {m/s}
  260,                                    !- Wind Direction {deg}
  ,                                       !- Sky Clearness
  No,                                     !- Rain Indicator
  No,                                     !- Snow Indicator
  21,                                     !- Day of Month
  10,                                     !- Month
  SummerDesignDay,                        !- Day Type
  No,                                     !- Daylight Saving Time Indicator
  Wetbulb,                                !- Humidity Condition Type
  ,                                       !- Humidity Condition Day Schedule Name
  16.8,                                   !- Wetbulb or DewPoint at Maximum Dry-Bulb {C}
  ,                                       !- Humidity Ratio at Maximum Dry-Bulb {kgWater/kgDryAir}
  ,                                       !- Enthalpy at Maximum Dry-Bulb {J/kg}
  DefaultMultipliers,                     !- Dry-Bulb Temperature Range Modifier Type
  ,                                       !- Dry-Bulb Temperature Range Modifier Day Schedule Name
  ASHRAETau,                              !- Solar Model Indicator
  ,                                       !- Beam Solar Day Schedule Name
  ,                                       !- Diffuse Solar Day Schedule Name
  0.38,                                   !- ASHRAE Clear Sky Optical Depth for Beam Irradiance {dimensionless}
  2.397;                                  !- ASHRAE Clear Sky Optical Depth for Diffuse Irradiance {dimensionless}

OS:SizingPeriod:DesignDay,
  {527cf90e-30fe-4e1a-a504-1750a71d084c}, !- Handle
  LOS ANGELES USC  November .4% Condns DB=>MCWB, !- Name
  31.9,                                   !- Maximum Dry-Bulb Temperature {C}
  10.4,                                   !- Daily Dry-Bulb Temperature Range {deltaC}
  100663,                                 !- Barometric Pressure {Pa}
  0.6,                                    !- Wind Speed {m/s}
  260,                                    !- Wind Direction {deg}
  ,                                       !- Sky Clearness
  No,                                     !- Rain Indicator
  No,                                     !- Snow Indicator
  21,                                     !- Day of Month
  11,                                     !- Month
  SummerDesignDay,                        !- Day Type
  No,                                     !- Daylight Saving Time Indicator
  Wetbulb,                                !- Humidity Condition Type
  ,                                       !- Humidity Condition Day Schedule Name
  15.4,                                   !- Wetbulb or DewPoint at Maximum Dry-Bulb {C}
  ,                                       !- Humidity Ratio at Maximum Dry-Bulb {kgWater/kgDryAir}
  ,                                       !- Enthalpy at Maximum Dry-Bulb {J/kg}
  DefaultMultipliers,                     !- Dry-Bulb Temperature Range Modifier Type
  ,                                       !- Dry-Bulb Temperature Range Modifier Day Schedule Name
  ASHRAETau,                              !- Solar Model Indicator
  ,                                       !- Beam Solar Day Schedule Name
  ,                                       !- Diffuse Solar Day Schedule Name
  0.325,                                  !- ASHRAE Clear Sky Optical Depth for Beam Irradiance {dimensionless}
  2.558;                                  !- ASHRAE Clear Sky Optical Depth for Diffuse Irradiance {dimensionless}

OS:WeatherFile,
  {814e8aa5-1a41-4d54-bb72-e854fcab6720}, !- Handle
  Usc Downtown La Campus,                 !- City
  CA,                                     !- State Province Region
  USA,                                    !- Country
  USC-DOWNTOWN-LA-CAMPUS,                 !- Data Source
  722874,                                 !- WMO Number
  34.024,                                 !- Latitude {deg}
  -118.291,                               !- Longitude {deg}
  -8,                                     !- Time Zone {hr}
  54.6,                                   !- Elevation {m}
  C:/Users/NeilBulger/Documents/CBECC 2025 Data/EPW25/CA_Title24_2025_LOS-ANGELES-USC.epw, !- Url
  FDD82080,                               !- Checksum
  ,                                       !- Start Date Actual Year
  Sunday;                                 !- Start Day of Week

OS:Sizing:Parameters,
  {fcf21efd-5770-4589-bd39-d9602c3795d4}, !- Handle
  1,                                      !- Heating Sizing Factor
  1;                                      !- Cooling Sizing Factor

OS:Material,
  {49c06a65-e07b-41c4-acbb-11464a865523}, !- Handle
  1/2IN Gypsum,                           !- Name
  Smooth,                                 !- Roughness
  0.0127,                                 !- Thickness {m}
  0.158656446866265,                      !- Conductivity {W/m-K}
  640.738534958406,                       !- Density {kg/m3}
  1130.436,                               !- Specific Heat {J/kg-K}
  0.9,                                    !- Thermal Absorptance
  0.7,                                    !- Solar Absorptance
  0.8;                                    !- Visible Absorptance

OS:Material,
  {4de2eff8-5d4a-41f9-92e3-a6f6746fb09a}, !- Handle
  1IN Stucco,                             !- Name
  MediumRough,                            !- Roughness
  0.0254,                                 !- Thickness {m}
  0.0359992810605248,                     !- Conductivity {W/m-K}
  24.0276950609402,                       !- Density {kg/m3}
  1465.38,                                !- Specific Heat {J/kg-K}
  0.9,                                    !- Thermal Absorptance
  0.7,                                    !- Solar Absorptance
  0.8;                                    !- Visible Absorptance

OS:Material,
  {d692ce14-efa2-4f0b-8286-211272cb42d8}, !- Handle
  CP02 CARPET PAD,                        !- Name
  Smooth,                                 !- Roughness
  0.01905,                                !- Thickness {m}
  0.0455183217255675,                     !- Conductivity {W/m-K}
  288.332340731282,                       !- Density {kg/m3}
  1381.644,                               !- Specific Heat {J/kg-K}
  0.9,                                    !- Thermal Absorptance
  0.7,                                    !- Solar Absorptance
  0.8;                                    !- Visible Absorptance

OS:Material,
  {3b66cdfe-926c-446e-8a8d-2c26aa5375c5}, !- Handle
  F04 Wall air space resistance,          !- Name
  Smooth,                                 !- Roughness
  0.1524,                                 !- Thickness {m}
  0.940308144239574,                      !- Conductivity {W/m-K}
  1.28147706991681,                       !- Density {kg/m3}
  1004.832;                               !- Specific Heat {J/kg-K}

OS:Material,
  {684ffa4b-d67a-47c3-8419-e5ff76a4050e}, !- Handle
  G01a 19mm gypsum board,                 !- Name
  MediumRough,                            !- Roughness
  0.01905,                                !- Thickness {m}
  0.158656446866265,                      !- Conductivity {W/m-K}
  640.738534958406,                       !- Density {kg/m3}
  1130.436,                               !- Specific Heat {J/kg-K}
  0.9,                                    !- Thermal Absorptance
  0.7,                                    !- Solar Absorptance
  0.8;                                    !- Visible Absorptance

OS:Material,
  {7ad6276e-e954-460c-904e-1113571b7cf3}, !- Handle
  I01 25mm insulation board,              !- Name
  Smooth,                                 !- Roughness
  0.0889,                                 !- Thickness {m}
  0.0458644686588418,                     !- Conductivity {W/m-K}
  11.2129243617721,                       !- Density {kg/m3}
  837.36;                                 !- Specific Heat {J/kg-K}

OS:Material,
  {b7e36ff1-1214-4310-b59b-2250cfd7fed8}, !- Handle
  Metal Decking,                          !- Name
  Smooth,                                 !- Roughness
  0.0015875,                              !- Thickness {m}
  45.3452482589303,                       !- Conductivity {W/m-K}
  7820.53418843482,                       !- Density {kg/m3}
  502.416,                                !- Specific Heat {J/kg-K}
  0.9,                                    !- Thermal Absorptance
  0.7,                                    !- Solar Absorptance
  0.8;                                    !- Visible Absorptance

OS:Material,
  {fb85b202-2369-439f-9f1f-3f774938b2ab}, !- Handle
  Roof Membrane,                          !- Name
  MediumRough,                            !- Roughness
  0.001524,                               !- Thickness {m}
  1.19714916872909,                       !- Conductivity {W/m-K}
  230.665872585026,                       !- Density {kg/m3}
  1256.04,                                !- Specific Heat {J/kg-K}
  0.85,                                   !- Thermal Absorptance
  0.92,                                   !- Solar Absorptance
  0.85;                                   !- Visible Absorptance

OS:Material:NoMass,
  {42b5d654-10f1-47ec-a46a-caa8054cd8b2}, !- Handle
  Metal Framed Wall - 16 in oc 5 in depth R-21 ins, !- Name
  Smooth,                                 !- Roughness
  0.718177329056445;                      !- Thermal Resistance {m2-K/W}

OS:Material,
  {dbe154e0-94d6-4d98-a24b-dcd8b271dc6c}, !- Handle
  Wall Ext - Board Insulation,            !- Name
  Smooth,                                 !- Roughness
  0.03243072,                             !- Thickness {m}
  0.0230187710627394,                     !- Conductivity {W/m-K}
  16.0184633739601,                       !- Density {kg/m3}
  1130.436;                               !- Specific Heat {J/kg-K}

OS:Material,
  {84e96dc1-7199-46b3-9ebf-afa66e6a2c5b}, !- Handle
  Roof Insulation R-35,                   !- Name
  Smooth,                                 !- Roughness
  0.141600682,                            !- Thickness {m}
  0.0230187710627394,                     !- Conductivity {W/m-K}
  16.0184633739601,                       !- Density {kg/m3}
  1130.436;                               !- Specific Heat {J/kg-K}

OS:Material,
  {225d5bbb-8eee-46dd-b9e6-fda1adb0c7dd}, !- Handle
  Floor Insulation R-20,                  !- Name
  MediumRough,                            !- Roughness
  0.0810768,                              !- Thickness {m}
  0.0230187710627394,                     !- Conductivity {W/m-K}
  16.0184633739601,                       !- Density {kg/m3}
  1130.436,                               !- Specific Heat {J/kg-K}
  0.9,                                    !- Thermal Absorptance
  0.7,                                    !- Solar Absorptance
  0.8;                                    !- Visible Absorptance

OS:Construction,
  {69868448-4160-4312-a488-25f7a3719245}, !- Handle
  FlatNonresWoodFramingAndOtherRoofU028,  !- Name
  ,                                       !- Surface Rendering Name
  {fb85b202-2369-439f-9f1f-3f774938b2ab}, !- Layer 1
  {84e96dc1-7199-46b3-9ebf-afa66e6a2c5b}, !- Layer 2
  {b7e36ff1-1214-4310-b59b-2250cfd7fed8}; !- Layer 3

OS:Construction,
  {de06a6de-accb-4947-b72c-567c04397db8}, !- Handle
  MetalFrameWallU055,                     !- Name
  ,                                       !- Surface Rendering Name
  {4de2eff8-5d4a-41f9-92e3-a6f6746fb09a}, !- Layer 1
  {49c06a65-e07b-41c4-acbb-11464a865523}, !- Layer 2
  {dbe154e0-94d6-4d98-a24b-dcd8b271dc6c}, !- Layer 3
  {49c06a65-e07b-41c4-acbb-11464a865523}, !- Layer 4
  {42b5d654-10f1-47ec-a46a-caa8054cd8b2}, !- Layer 5
  {49c06a65-e07b-41c4-acbb-11464a865523}; !- Layer 6

OS:Construction,
  {f59c8a79-4c34-4004-818b-718452d92873}, !- Handle
  ExtSlabCarpet 4in ClimateZone 1-8,      !- Name
  ,                                       !- Surface Rendering Name
  {225d5bbb-8eee-46dd-b9e6-fda1adb0c7dd}, !- Layer 1
  {92ec6da0-29ef-4114-9413-e1a00a176124}, !- Layer 2
  {d692ce14-efa2-4f0b-8286-211272cb42d8}; !- Layer 3

OS:Material,
  {92ec6da0-29ef-4114-9413-e1a00a176124}, !- Handle
  1/2IN Gypsum 1,                         !- Name
  Smooth,                                 !- Roughness
  0.0127,                                 !- Thickness {m}
  0.158656446866265,                      !- Conductivity {W/m-K}
  640.738534958406,                       !- Density {kg/m3}
  1130.436,                               !- Specific Heat {J/kg-K}
  0.9,                                    !- Thermal Absorptance
  0.7,                                    !- Solar Absorptance
  0.8;                                    !- Visible Absorptance

OS:Construction,
  {3af9eaf5-83f6-4ca0-83d7-cfac36e97662}, !- Handle
  Interior Wall,                          !- Name
  ,                                       !- Surface Rendering Name
  {684ffa4b-d67a-47c3-8419-e5ff76a4050e}, !- Layer 1
  {3b66cdfe-926c-446e-8a8d-2c26aa5375c5}, !- Layer 2
  {7ad6276e-e954-460c-904e-1113571b7cf3}, !- Layer 3
  {684ffa4b-d67a-47c3-8419-e5ff76a4050e}; !- Layer 4

OS:Material:NoMass,
  {a01e5e2b-b213-4af8-b658-7e0efe1f0479}, !- Handle
  Exterior Door Material,                 !- Name
  MediumSmooth,                           !- Roughness
  0.101893286975538;                      !- Thermal Resistance {m2-K/W}

OS:Construction,
  {fbe538d5-f507-4471-803a-64b7a4965e16}, !- Handle
  Exterior Door,                          !- Name
  ,                                       !- Surface Rendering Name
  {a01e5e2b-b213-4af8-b658-7e0efe1f0479}; !- Layer 1

OS:Material:NoMass,
  {84bfc420-8472-4bb7-b73f-72d6d59d68a1}, !- Handle
  Interior Door Material,                 !- Name
  MediumSmooth,                           !- Roughness
  0.290582769492295;                      !- Thermal Resistance {m2-K/W}

OS:Construction,
  {5e5f7a2e-d5a7-415e-82a0-3e0daf582542}, !- Handle
  Interior Door,                          !- Name
  ,                                       !- Surface Rendering Name
  {84bfc420-8472-4bb7-b73f-72d6d59d68a1}; !- Layer 1

OS:WindowMaterial:SimpleGlazingSystem,
  {4489e753-6a60-4386-ae28-ce87326c365a}, !- Handle
  Exterior Window - Fixed Material,       !- Name
  1.93060953597858,                       !- U-Factor {W/m2-K}
  0.22,                                   !- Solar Heat Gain Coefficient
  0.42;                                   !- Visible Transmittance

OS:Construction,
  {f32e9925-983f-4483-bf72-07e9a767d3bc}, !- Handle
  Exterior Window - Fixed,                !- Name
  ,                                       !- Surface Rendering Name
  {4489e753-6a60-4386-ae28-ce87326c365a}; !- Layer 1

OS:WindowMaterial:SimpleGlazingSystem,
  {db429985-04a2-4dd0-8485-f8c3b8b6857e}, !- Handle
  Skylight - Fixed Material,              !- Name
  3.29339273784581,                       !- U-Factor {W/m2-K}
  0.25,                                   !- Solar Heat Gain Coefficient
  0.49;                                   !- Visible Transmittance

OS:Construction,
  {4b64670a-7fb2-4e1d-911e-862843661551}, !- Handle
  Skylight - Fixed,                       !- Name
  ,                                       !- Surface Rendering Name
  {db429985-04a2-4dd0-8485-f8c3b8b6857e}; !- Layer 1

OS:Curve:Biquadratic,
  {ab3776e8-ac36-4170-838f-58b86d1af684}, !- Handle
  VRFSysDefEIRRatio_fToadbTwbSI,          !- Name
  1,                                      !- Coefficient1 Constant
  0,                                      !- Coefficient2 x
  0,                                      !- Coefficient3 x**2
  0,                                      !- Coefficient4 y
  0,                                      !- Coefficient5 y**2
  0,                                      !- Coefficient6 x*y
  0,                                      !- Minimum Value of x
  100,                                    !- Maximum Value of x
  0,                                      !- Minimum Value of y
  100;                                    !- Maximum Value of y

OS:Curve:Biquadratic,
  {bf926fff-9214-458b-8923-864bf3512ec4}, !- Handle
  EPDef-VRFSysClgQRatio_fTwbToadbLowSI,   !- Name
  0.576883,                               !- Coefficient1 Constant
  0.017448,                               !- Coefficient2 x
  0.000583,                               !- Coefficient3 x**2
  -2e-06,                                 !- Coefficient4 y
  0,                                      !- Coefficient5 y**2
  0,                                      !- Coefficient6 x*y
  15,                                     !- Minimum Value of x
  24,                                     !- Maximum Value of x
  -5,                                     !- Minimum Value of y
  23;                                     !- Maximum Value of y

OS:Curve:Biquadratic,
  {47a6de8e-9e47-4fd4-919d-ba2c1991aa0d}, !- Handle
  EPDef-VRFSysClgQRatio_fTwbToadbHiSI,    !- Name
  0.686736,                               !- Coefficient1 Constant
  0.020763,                               !- Coefficient2 x
  0.000545,                               !- Coefficient3 x**2
  -0.001622,                              !- Coefficient4 y