
OS:Version,
  {28f5a8af-fbaf-4a80-9c99-148deb3f4169}, !- Handle
  3.10.0;                                 !- Version Identifier

OS:SimulationControl,
  {eb4a663a-a0bc-483e-95e1-7f7bb3da3b08}, !- Handle
  ,                                       !- Do Zone Sizing Calculation
  ,                                       !- Do System Sizing Calculation
  ,                                       !- Do Plant Sizing Calculation
  No,                                     !- Run Simulation for Sizing Periods
  Yes,                                    !- Run Simulation for Weather File Run Periods
  ,                                       !- Loads Convergence Tolerance Value {W}
  ,                                       !- Temperature Convergence Tolerance Value {deltaC}
  FullExterior,                           !- Solar Distribution
  50;                                     !- Maximum Number of Warmup Days

OS:YearDescription,
  {cf2084c1-480f-4f63-a015-4aa8fda66e50}, !- Handle
  2009,                                   !- Calendar Year
  ,                                       !- Day of Week for Start Day
  ;                                       !- Is Leap Year

OS:RunPeriod,
  {1b51f773-5438-4543-a417-e10f388141e8}, !- Handle
  CA_Title24_2025_LOS-ANGELES-USC,        !- Name
  1,                                      !- Begin Month
  1,                                      !- Begin Day of Month
  12,                                     !- End Month
  31,                                     !- End Day of Month
  No,                                     !- Use Weather File Holidays and Special Days
  No,                                     !- Use Weather File Daylight Saving Period
  Yes,                                    !- Apply Weekend Holiday Rule
  ,                                       !- Use Weather File Rain Indicators
  ,                                       !- Use Weather File Snow Indicators
  ;                                       !- Number of Times Runperiod to be Repeated

OS:Site,
  {b60ec752-8328-4d25-8004-9cdb8146fcfb}, !- Handle
  LOS ANGELES USC,                        !- Name
  38.69,                                  !- Latitude {deg}
  -121.6,                                 !- Longitude {deg}
  -8,                                     !- Time Zone {hr}
  54.5592,                                !- Elevation {m}
  Suburbs;                                !- Terrain

OS:SizingPeriod:DesignDay,
  {7aa3eba9-f985-4566-841c-b1f8bbc7f580}, !- Handle
  LOS ANGELES USC Ann Htg 99.6% Condns DB, !- Name
  6.2,                                    !- Maximum Dry-Bulb Temperature {C}
  0,                                      !- Daily Dry-Bulb Temperature Range {deltaC}
  100663,                                 !- Barometric Pressure {Pa}
  0.6,                                    !- Wind Speed {m/s}
  20,                                     !- Wind Direction {deg}
  0,                                      !- Sky Clearness
  No,                                     !- Rain Indicator
  No,                                     !- Snow Indicator
  21,                                     !- Day of Month
  12,                                     !- Month
  WinterDesignDay,                        !- Day Type
  No,                                     !- Daylight Saving Time Indicator
  Wetbulb,                                !- Humidity Condition Type
  ,                                       !- Humidity Condition Day Schedule Name
  6.2,                                    !- Wetbulb or DewPoint at Maximum Dry-Bulb {C}
  ,                                       !- Humidity Ratio at Maximum Dry-Bulb {kgWater/kgDryAir}
  ,                                       !- Enthalpy at Maximum Dry-Bulb {J/kg}
  DefaultMultipliers,                     !- Dry-Bulb Temperature Range Modifier Type
  ,                                       !- Dry-Bulb Temperature Range Modifier Day Schedule Name
  ASHRAEClearSky;                         !- Solar Model Indicator

OS:SizingPeriod:DesignDay,
  {f699f74a-4c14-4085-8059-a860254d82a7}, !- Handle
  LOS ANGELES USC  June .4% Condns DB=>MCWB, !- Name
  32.3,                                   !- Maximum Dry-Bulb Temperature {C}
  8.2,                                    !- Daily Dry-Bulb Temperature Range {deltaC}
  100663,                                 !- Barometric Pressure {Pa}
  0.6,                                    !- Wind Speed {m/s}
  260,                                    !- Wind Direction {deg}
  ,                                       !- Sky Clearness
  No,                                     !- Rain Indicator
  No,                                     !- Snow Indicator
  21,                                     !- Day of Month
  6,                                      !- Month
  SummerDesignDay,                        !- Day Type
  No,                                     !- Daylight Saving Time Indicator
  Wetbulb,                                !- Humidity Condition Type
  ,                                       !- Humidity Condition Day Schedule Name
  20.7,                                   !- Wetbulb or DewPoint at Maximum Dry-Bulb {C}
  ,                                       !- Humidity Ratio at Maximum Dry-Bulb {kgWater/kgDryAir}
  ,                                       !- Enthalpy at Maximum Dry-Bulb {J/kg}
  DefaultMultipliers,                     !- Dry-Bulb Temperature Range Modifier Type
  ,                                       !- Dry-Bulb Temperature Range Modifier Day Schedule Name
  ASHRAETau,                              !- Solar Model Indicator
  ,                                       !- Beam Solar Day Schedule Name
  ,                                       !- Diffuse Solar Day Schedule Name
  0.405,                                  !- ASHRAE Clear Sky Optical Depth for Beam Irradiance {dimensionless}
  2.324;                                  !- ASHRAE Clear Sky Optical Depth for Diffuse Irradiance {dimensionless}

OS:SizingPeriod:DesignDay,
  {90743517-757f-4270-bf7c-361cb41b92e0}, !- Handle
  LOS ANGELES USC  July .4% Condns DB=>MCWB, !- Name
  33.8,                                   !- Maximum Dry-Bulb Temperature {C}
  9.2,                                    !- Daily Dry-Bulb Temperature Range {deltaC}
  100663,                                 !- Barometric Pressure {Pa}
  0.6,                                    !- Wind Speed {m/s}
  260,                                    !- Wind Direction {deg}
  ,                                       !- Sky Clearness
  No,                                     !- Rain Indicator
  No,                                     !- Snow Indicator
  21,                                     !- Day of Month
  7,                                      !- Month
  SummerDesignDay,                        !- Day Type
  No,                                     !- Daylight Saving Time Indicator
  Wetbulb,                                !- Humidity Condition Type
  ,                                       !- Humidity Condition Day Schedule Name
  22.1,                                   !- Wetbulb or DewPoint at Maximum Dry-Bulb {C}
  ,                                       !- Humidity Ratio at Maximum Dry-Bulb {kgWater/kgDryAir}
  ,                                       !- Enthalpy at Maximum Dry-Bulb {J/kg}
  DefaultMultipliers,                     !- Dry-Bulb Temperature Range Modifier Type
  ,                                       !- Dry-Bulb Temperature Range Modifier Day Schedule Name
  ASHRAETau,                              !- Solar Model Indicator
  ,                                       !- Beam Solar Day Schedule Name
  ,                                       !- Diffuse Solar Day Schedule Name
  0.402,                                  !- ASHRAE Clear Sky Optical Depth for Beam Irradiance {dimensionless}
  2.401;                                  !- ASHRAE Clear Sky Optical Depth for Diffuse Irradiance {dimensionless}

OS:SizingPeriod:DesignDay,
  {de005b00-a399-4230-af73-3189e653e9b5}, !- Handle
  LOS ANGELES USC  August .4% Condns DB=>MCWB, !- Name
  33.7,                                   !- Maximum Dry-Bulb Temperature {C}
  9.6,                                    !- Daily Dry-Bulb Temperature Range {deltaC}
  100663,                                 !- Barometric Pressure {Pa}
  0.6,                                    !- Wind Speed {m/s}
  260,                                    !- Wind Direction {deg}
  ,                                       !- Sky Clearness
  No,                                     !- Rain Indicator
  No,                                     !- Snow Indicator
  21,                                     !- Day of Month
  8,                                      !- Month
  SummerDesignDay,                        !- Day Type
  No,                                     !- Daylight Saving Time Indicator
  Wetbulb,                                !- Humidity Condition Type
  ,                                       !- Humidity Condition Day Schedule Name
  21.2,                                   !- Wetbulb or DewPoint at Maximum Dry-Bulb {C}
  ,                                       !- Humidity Ratio at Maximum Dry-Bulb {kgWater/kgDryAir}
  ,                                       !- Enthalpy at Maximum Dry-Bulb {J/kg}
  DefaultMultipliers,                     !- Dry-Bulb Temperature Range Modifier Type
  ,                                       !- Dry-Bulb Temperature Range Modifier Day Schedule Name
  ASHRAETau,                              !- Solar Model Indicator
  ,                                       !- Beam Solar Day Schedule Name
  ,                                       !- Diffuse Solar Day Schedule Name
  0.383,                                  !- ASHRAE Clear Sky Optical Depth for Beam Irradiance {dimensionless}
  2.433;                                  !- ASHRAE Clear Sky Optical Depth for Diffuse Irradiance {dimensionless}

OS:SizingPeriod:DesignDay,
  {b71a2ff0-7f71-4a0e-8b8b-120f875c12bb}, !- Handle
  LOS ANGELES USC  September .4% Condns DB=>MCWB, !- Name
  36.3,                                   !- Maximum Dry-Bulb Temperature {C}
  9.8,                                    !- Daily Dry-Bulb Temperature Range {deltaC}
  100663,                                 !- Barometric Pressure {Pa}
  0.6,                                    !- Wind Speed {m/s}
  260,                                    !- Wind Direction {deg}
  ,                                       !- Sky Clearness
  No,                                     !- Rain Indicator
  No,                                     !- Snow Indicator
  21,                                     !- Day of Month
  9,                                      !- Month
  SummerDesignDay,                        !- Day Type
  No,                                     !- Daylight Saving Time Indicator
  Wetbulb,                                !- Humidity Condition Type
  ,                                       !- Humidity Condition Day Schedule Name
  20.1,                                   !- Wetbulb or DewPoint at Maximum Dry-Bulb {C}
  ,                                       !- Humidity Ratio at Maximum Dry-Bulb {kgWater/kgDryAir}
  ,                                       !- Enthalpy at Maximum Dry-Bulb {J/kg}
  DefaultMultipliers,                     !- Dry-Bulb Temperature Range Modifier Type
  ,                                       !- Dry-Bulb Temperature Range Modifier Day Schedule Name
  ASHRAETau,                              !- Solar Model Indicator
  ,                                       !- Beam Solar Day Schedule Name
  ,                                       !- Diffuse Solar Day Schedule Name
  0.369,                                  !- ASHRAE Clear Sky Optical Depth for Beam Irradiance {dimensionless}
  2.465;                                  !- ASHRAE Clear Sky Optical Depth for Diffuse Irradiance {dimensionless}

OS:SizingPeriod:DesignDay,
  {2bd0566f-bc26-4610-969b-afb2d4a701b9}, !- Handle
  LOS ANGELES USC  October .4% Condns DB=>MCWB, !- Name
  35.2,                                   !- Maximum Dry-Bulb Temperature {C}
  9.9,                                    !- Daily Dry-Bulb Temperature Range {deltaC}
  100663,                                 !- Barometric Pressure {Pa}
  0.6,                                    !- Wind Speed {m/s}
  260,                                    !- Wind Direction {deg}
  ,                                       !- Sky Clearness
  No,                                     !- Rain Indicator
  No,                                     !- Snow Indicator
  21,                                     !- Day of Month
  10,                                     !- Month
  SummerDesignDay,                        !- Day Type
  No,                                     !- Daylight Saving Time Indicator
  Wetbulb,                                !- Humidity Condition Type
  ,                                       !- Humidity Condition Day Schedule Name
  16.8,                                   !- Wetbulb or DewPoint at Maximum Dry-Bulb {C}
  ,                                       !- Humidity Ratio at Maximum Dry-Bulb {kgWater/kgDryAir}
  ,                                       !- Enthalpy at Maximum Dry-Bulb {J/kg}
  DefaultMultipliers,                     !- Dry-Bulb Temperature Range Modifier Type
  ,                                       !- Dry-Bulb Temperature Range Modifier Day Schedule Name
  ASHRAETau,                              !- Solar Model Indicator
  ,                                       !- Beam Solar Day Schedule Name
  ,                                       !- Diffuse Solar Day Schedule Name
  0.38,                                   !- ASHRAE Clear Sky Optical Depth for Beam Irradiance {dimensionless}
  2.397;                                  !- ASHRAE Clear Sky Optical Depth for Diffuse Irradiance {dimensionless}

OS:SizingPeriod:DesignDay,
  {bd156d13-096c-4008-83ed-59454f1f7e49}, !- Handle
  LOS ANGELES USC  November .4% Condns DB=>MCWB, !- Name
  31.9,                                   !- Maximum Dry-Bulb Temperature {C}
  10.4,                                   !- Daily Dry-Bulb Temperature Range {deltaC}
  100663,                                 !- Barometric Pressure {Pa}
  0.6,                                    !- Wind Speed {m/s}
  260,                                    !- Wind Direction {deg}
  ,                                       !- Sky Clearness
  No,                                     !- Rain Indicator
  No,                                     !- Snow Indicator
  21,                                     !- Day of Month
  11,                                     !- Month
  SummerDesignDay,                        !- Day Type
  No,                                     !- Daylight Saving Time Indicator
  Wetbulb,                                !- Humidity Condition Type
  ,                                       !- Humidity Condition Day Schedule Name
  15.4,                                   !- Wetbulb or DewPoint at Maximum Dry-Bulb {C}
  ,                                       !- Humidity Ratio at Maximum Dry-Bulb {kgWater/kgDryAir}
  ,                                       !- Enthalpy at Maximum Dry-Bulb {J/kg}
  DefaultMultipliers,                     !- Dry-Bulb Temperature Range Modifier Type
  ,                                       !- Dry-Bulb Temperature Range Modifier Day Schedule Name
  ASHRAETau,                              !- Solar Model Indicator
  ,                                       !- Beam Solar Day Schedule Name
  ,                                       !- Diffuse Solar Day Schedule Name
  0.325,                                  !- ASHRAE Clear Sky Optical Depth for Beam Irradiance {dimensionless}
  2.558;                                  !- ASHRAE Clear Sky Optical Depth for Diffuse Irradiance {dimensionless}

OS:WeatherFile,
  {83100b85-8efc-43a3-bfc0-7b18e7f1e1ca}, !- Handle
  Usc Downtown La Campus,                 !- City
  CA,                                     !- State Province Region
  USA,                                    !- Country
  USC-DOWNTOWN-LA-CAMPUS,                 !- Data Source
  722874,                                 !- WMO Number
  34.024,                                 !- Latitude {deg}
  -118.291,                               !- Longitude {deg}
  -8,                                     !- Time Zone {hr}
  54.6,                                   !- Elevation {m}
  C:/Users/MichaelSawford/Documents/CBECC 2025 Data/EPW25/CA_Title24_2025_LOS-ANGELES-USC.epw, !- Url
  FDD82080,                               !- Checksum
  ,                                       !- Start Date Actual Year
  Sunday;                                 !- Start Day of Week

OS:Sizing:Parameters,
  {b15fef36-90cd-4940-a7e3-accf55911a3d}, !- Handle
  1,                                      !- Heating Sizing Factor
  1;                                      !- Cooling Sizing Factor

OS:Curve:Biquadratic,
  {ae3b5d22-fb30-4e9d-9553-a4d19143cd27}, !- Handle
  BlrHWCondBlrFIRRatio_fQRatioTewtSI,     !- Name
  1.19381,                                !- Coefficient1 Constant
  -0.110825,                              !- Coefficient2 x
  0.039514,                               !- Coefficient3 x**2
  -0.006371,                              !- Coefficient4 y
  3.8e-05,                                !- Coefficient5 y**2
  0.00083,                                !- Coefficient6 x*y
  0.1,                                    !- Minimum Value of x
  1,                                      !- Maximum Value of x
  15.56,                                  !- Minimum Value of y
  71.1,                                   !- Maximum Value of y
  0.93,                                   !- Minimum Curve Output
  1.05;                                   !- Maximum Curve Output

OS:Curve:Cubic,
  {2133e8c6-5024-4a4c-903a-1c623d538b35}, !- Handle
  HtRejVSDFanPwrRatio_fQRatio,            !- Name
  0.331629,                               !- Coefficient1 Constant
  -0.885676,                              !- Coefficient2 x
  0.605565,                               !- Coefficient3 x**2
  0.948482,                               !- Coefficient4 x**3
  0,                                      !- Minimum Value of x
  100;                                    !- Maximum Value of x

OS:Schedule:Day,
  {ff0b40b8-1734-4327-8eee-c926ca6d7ed3}, !- Handle
  CARes2013 InsLighting Hrly,             !- Name
  {37fa6e3e-2e26-43b9-816a-bcb2d4c3a28a}, !- Schedule Type Limits Name
  ,                                       !- Interpolate to Timestep
  1,                                      !- Hour 1
  0,                                      !- Minute 1
  0.023,                                  !- Value Until Time 1
  2,                                      !- Hour 2
  0,                                      !- Minute 2
  0.019,                                  !- Value Until Time 2
  3,                                      !- Hour 3
  0,                                      !- Minute 3
  0.015,                                  !- Value Until Time 3
  4,                                      !- Hour 4
  0,                                      !- Minute 4
  0.017,                                  !- Value Until Time 4
  5,                                      !- Hour 5
  0,                                      !- Minute 5
  0.021,                                  !- Value Until Time 5
  6,                                      !- Hour 6
  0,                                      !- Minute 6
  0.031,                                  !- Value Until Time 6
  7,                                      !- Hour 7
  0,                                      !- Minute 7
  0.042,                                  !- Value Until Time 7
  8,                                      !- Hour 8
  0,                                      !- Minute 8
  0.041,                                  !- Value Until Time 8
  9,                                      !- Hour 9
  0,                                      !- Minute 9
  0.034,                                  !- Value Until Time 9
  10,                                     !- Hour 10
  0,                                      !- Minute 10
  0.029,                                  !- Value Until Time 10
  11,                                     !- Hour 11
  0,                                      !- Minute 11
  0.027,                                  !- Value Until Time 11
  12,                                     !- Hour 12
  0,                                      !- Minute 12
  0.025,                                  !- Value Until Time 12
  13,                                     !- Hour 13
  0,                                      !- Minute 13
  0.021,                                  !- Value Until Time 13
  14,                                     !- Hour 14
  0,                                      !- Minute 14
  0.021,                                  !- Value Until Time 14
  15,                                     !- Hour 15
  0,                                      !- Minute 15
  0.021,                                  !- Value Until Time 15
  16,                                     !- Hour 16
  0,                                      !- Minute 16
  0.026,                                  !- Value Until Time 16
  17,                                     !- Hour 17
  0,                                      !- Minute 17
  0.031,                                  !- Value Until Time 17
  18,                                     !- Hour 18
  0,                                      !- Minute 18
  0.044,                                  !- Value Until Time 18
  19,                                     !- Hour 19
  0,                                      !- Minute 19
  0.084,                                  !- Value Until Time 19
  20,                                     !- Hour 20
  0,                                      !- Minute 20
  0.118,                                  !- Value Until Time 20
  21,                                     !- Hour 21
  0,                                      !- Minute 21
  0.113,                                  !- Value Until Time 21
  22,                                     !- Hour 22
  0,                                      !- Minute 22
  0.096,                                  !- Value Until Time 22
  23,                                     !- Hour 23
  0,                                      !- Minute 23
  0.063,                                  !- Value Until Time 23
  24,                                     !- Hour 24
  0,                                      !- Minute 24
  0.038;                                  !- Value Until Time 24

OS:ScheduleTypeLimits,
  {37fa6e3e-2e26-43b9-816a-bcb2d4c3a28a}, !- Handle
  Fraction,                               !- Name
  0,                                      !- Lower Limit Value
  1,                                      !- Upper Limit Value
  Continuous,                             !- Numeric Type
  Dimensionless;                          !- Unit Type

OS:Schedule:Day,
  {a9c2e87e-ff45-4d38-9c62-f3a1c191da1f}, !- Handle
  CARes2013 Occupancy Hrly,               !- Name
  {37fa6e3e-2e26-43b9-816a-bcb2d4c3a28a}, !- Schedule Type Limits Name
  ,                                       !- Interpolate to Timestep
  1,                                      !- Hour 1
  0,                                      !- Minute 1
  0.035,                                  !- Value Until Time 1
  2,                                      !- Hour 2
  0,                                      !- Minute 2
  0.035,                                  !- Value Until Time 2
  3,                                      !- Hour 3
  0,                                      !- Minute 3
  0.035,                                  !- Value Until Time 3
  4,                                      !- Hour 4
  0,                                      !- Minute 4
  0.035,                                  !- Value Until Time 4
  5,                                      !- Hour 5
  0,                                      !- Minute 5
  0.035,                                  !- Value Until Time 5
  6,                                      !- Hour 6
  0,                                      !- Minute 6
  0.059,                                  !- Value Until Time 6
  7,                                      !- Hour 7
  0,                                      !- Minute 7
  0.082,                                  !- Value Until Time 7
  8,                                      !- Hour 8
  0,                                      !- Minute 8
  0.055,                                  !- Value Until Time 8
  9,                                      !- Hour 9
  0,                                      !- Minute 9
  0.027,                                  !- Value Until Time 9
  10,                                     !- Hour 10
  0,                                      !- Minute 10
  0.014,                                  !- Value Until Time 10
  11,                                     !- Hour 11
  0,                                      !- Minute 11
  0.014,                                  !- Value Until Time 11
  12,                                     !- Hour 12
  0,                                      !- Minute 12
  0.014,                                  !- Value Until Time 12
  13,                                     !- Hour 13
  0,                                      !- Minute 13
  0.014,                                  !- Value Until Time 13
  14,                                     !- Hour 14
  0,                                      !- Minute 14
  0.014,                                  !- Value Until Time 14
  15,                                     !- Hour 15
  0,                                      !- Minute 15
  0.019,                                  !- Value Until Time 15
  16,                                     !- Hour 16
  0,                                      !- Minute 16
  0.027,                                  !- Value Until Time 16
  17,                                     !- Hour 17
  0,                                      !- Minute 17
  0.041,                                  !- Value Until Time 17
  18,                                     !- Hour 18
  0,                                      !- Minute 18
  0.055,                                  !- Value Until Time 18
  19,                                     !- Hour 19
  0,                                      !- Minute 19
  0.068,                                  !- Value Until Time 19
  20,                                     !- Hour 20
  0,                                      !- Minute 20
  0.082,                                  !- Value Until Time 20
  21,                                     !- Hour 21
  0,                                      !- Minute 21
  0.082,                                  !- Value Until Time 21
  22,                                     !- Hour 22
  0,                                      !- Minute 22
  0.07,                                   !- Value Until Time 22
  23,                                     !- Hour 23
  0,                                      !- Minute 23
  0.053,                                  !- Value Until Time 23
  24,                                     !- Hour 24
  0,                                      !- Minute 24
  0.035;                                  !- Value Until Time 24

OS:Schedule:Day,
  {bed23ddd-e2a8-43dc-85ce-290530e05210}, !- Handle
  CARes2013 Equipment Hrly,               !- Name
  {37fa6e3e-2e26-43b9-816a-bcb2d4c3a28a}, !- Schedule Type Limits Name
  ,                                       !- Interpolate to Timestep
  1,                                      !- Hour 1
  0,                                      !- Minute 1
  0.037,                                  !- Value Until Time 1
  2,                                      !- Hour 2
  0,                                      !- Minute 2
  0.035,                                  !- Value Until Time 2
  3,                                      !- Hour 3
  0,                                      !- Minute 3
  0.034,                                  !- Value Until Time 3
  4,                                      !- Hour 4
  0,                                      !- Minute 4
  0.034,                                  !- Value Until Time 4
  5,                                      !- Hour 5
  0,                                      !- Minute 5
  0.032,                                  !- Value Until Time 5
  6,                                      !- Hour 6
  0,                                      !- Minute 6
  0.036,                                  !- Value Until Time 6
  7,                                      !- Hour 7
  0,                                      !- Minute 7
  0.042,                                  !- Value Until Time 7
  8,                                      !- Hour 8
  0,                                      !- Minute 8
  0.044,                                  !- Value Until Time 8
  9,                                      !- Hour 9
  0,                                      !- Minute 9
  0.037,                                  !- Value Until Time 9
  10,                                     !- Hour 10
  0,                                      !- Minute 10
  0.032,                                  !- Value Until Time 10
  11,                                     !- Hour 11
  0,                                      !- Minute 11