
OS:Version,
  {98bd74ad-6f0d-4458-90af-463e026d1046}, !- Handle
  3.10.0;                                 !- Version Identifier

OS:SimulationControl,
  {b3ea7fd3-4e70-45d8-bd49-53f376752adc}, !- Handle
  ,                                       !- Do Zone Sizing Calculation
  ,                                       !- Do System Sizing Calculation
  ,                                       !- Do Plant Sizing Calculation
  No,                                     !- Run Simulation for Sizing Periods
  Yes,                                    !- Run Simulation for Weather File Run Periods
  ,                                       !- Loads Convergence Tolerance Value {W}
  ,                                       !- Temperature Convergence Tolerance Value {deltaC}
  FullExterior,                           !- Solar Distribution
  50;                                     !- Maximum Number of Warmup Days

OS:YearDescription,
  {384866e6-0416-4c4c-abb7-a2ec5d6eab1d}, !- Handle
  2009,                                   !- Calendar Year
  ,                                       !- Day of Week for Start Day
  ;                                       !- Is Leap Year

OS:RunPeriod,
  {1f9fb67a-333f-4a78-bac5-108ff68d38c8}, !- Handle
  CA_Title24_2025_LOS-ANGELES-USC,        !- Name
  1,                                      !- Begin Month
  1,                                      !- Begin Day of Month
  12,                                     !- End Month
  31,                                     !- End Day of Month
  No,                                     !- Use Weather File Holidays and Special Days
  No,                                     !- Use Weather File Daylight Saving Period
  Yes,                                    !- Apply Weekend Holiday Rule
  ,                                       !- Use Weather File Rain Indicators
  ,                                       !- Use Weather File Snow Indicators
  ;                                       !- Number of Times Runperiod to be Repeated

OS:Site,
  {3aa46822-9c96-4921-91d3-ab40a92bcd60}, !- Handle
  LOS ANGELES USC,                        !- Name
  38.69,                                  !- Latitude {deg}
  -121.6,                                 !- Longitude {deg}
  -8,                                     !- Time Zone {hr}
  54.5592,                                !- Elevation {m}
  Suburbs;                                !- Terrain

OS:SizingPeriod:DesignDay,
  {0cd5615c-cce4-40dc-8397-aabfb55c823d}, !- Handle
  LOS ANGELES USC Ann Htg 99.6% Condns DB, !- Name
  6.2,                                    !- Maximum Dry-Bulb Temperature {C}
  0,                                      !- Daily Dry-Bulb Temperature Range {deltaC}
  100663,                                 !- Barometric Pressure {Pa}
  0.6,                                    !- Wind Speed {m/s}
  20,                                     !- Wind Direction {deg}
  0,                                      !- Sky Clearness
  No,                                     !- Rain Indicator
  No,                                     !- Snow Indicator
  21,                                     !- Day of Month
  12,                                     !- Month
  WinterDesignDay,                        !- Day Type
  No,                                     !- Daylight Saving Time Indicator
  Wetbulb,                                !- Humidity Condition Type
  ,                                       !- Humidity Condition Day Schedule Name
  6.2,                                    !- Wetbulb or DewPoint at Maximum Dry-Bulb {C}
  ,                                       !- Humidity Ratio at Maximum Dry-Bulb {kgWater/kgDryAir}
  ,                                       !- Enthalpy at Maximum Dry-Bulb {J/kg}
  DefaultMultipliers,                     !- Dry-Bulb Temperature Range Modifier Type
  ,                                       !- Dry-Bulb Temperature Range Modifier Day Schedule Name
  ASHRAEClearSky;                         !- Solar Model Indicator

OS:SizingPeriod:DesignDay,
  {4b4cfa0f-42b7-4795-b34c-301c9ffd50ae}, !- Handle
  LOS ANGELES USC  June .4% Condns DB=>MCWB, !- Name
  32.3,                                   !- Maximum Dry-Bulb Temperature {C}
  8.2,                                    !- Daily Dry-Bulb Temperature Range {deltaC}
  100663,                                 !- Barometric Pressure {Pa}
  0.6,                                    !- Wind Speed {m/s}
  260,                                    !- Wind Direction {deg}
  ,                                       !- Sky Clearness
  No,                                     !- Rain Indicator
  No,                                     !- Snow Indicator
  21,                                     !- Day of Month
  6,                                      !- Month
  SummerDesignDay,                        !- Day Type
  No,                                     !- Daylight Saving Time Indicator
  Wetbulb,                                !- Humidity Condition Type
  ,                                       !- Humidity Condition Day Schedule Name
  20.7,                                   !- Wetbulb or DewPoint at Maximum Dry-Bulb {C}
  ,                                       !- Humidity Ratio at Maximum Dry-Bulb {kgWater/kgDryAir}
  ,                                       !- Enthalpy at Maximum Dry-Bulb {J/kg}
  DefaultMultipliers,                     !- Dry-Bulb Temperature Range Modifier Type
  ,                                       !- Dry-Bulb Temperature Range Modifier Day Schedule Name
  ASHRAETau,                              !- Solar Model Indicator
  ,                                       !- Beam Solar Day Schedule Name
  ,                                       !- Diffuse Solar Day Schedule Name
  0.405,                                  !- ASHRAE Clear Sky Optical Depth for Beam Irradiance {dimensionless}
  2.324;                                  !- ASHRAE Clear Sky Optical Depth for Diffuse Irradiance {dimensionless}

OS:SizingPeriod:DesignDay,
  {3e0e88e8-a6ed-4552-a6f2-cb06b9aa4e43}, !- Handle
  LOS ANGELES USC  July .4% Condns DB=>MCWB, !- Name
  33.8,                                   !- Maximum Dry-Bulb Temperature {C}
  9.2,                                    !- Daily Dry-Bulb Temperature Range {deltaC}
  100663,                                 !- Barometric Pressure {Pa}
  0.6,                                    !- Wind Speed {m/s}
  260,                                    !- Wind Direction {deg}
  ,                                       !- Sky Clearness
  No,                                     !- Rain Indicator
  No,                                     !- Snow Indicator
  21,                                     !- Day of Month
  7,                                      !- Month
  SummerDesignDay,                        !- Day Type
  No,                                     !- Daylight Saving Time Indicator
  Wetbulb,                                !- Humidity Condition Type
  ,                                       !- Humidity Condition Day Schedule Name
  22.1,                                   !- Wetbulb or DewPoint at Maximum Dry-Bulb {C}
  ,                                       !- Humidity Ratio at Maximum Dry-Bulb {kgWater/kgDryAir}
  ,                                       !- Enthalpy at Maximum Dry-Bulb {J/kg}
  DefaultMultipliers,                     !- Dry-Bulb Temperature Range Modifier Type
  ,                                       !- Dry-Bulb Temperature Range Modifier Day Schedule Name
  ASHRAETau,                              !- Solar Model Indicator
  ,                                       !- Beam Solar Day Schedule Name
  ,                                       !- Diffuse Solar Day Schedule Name
  0.402,                                  !- ASHRAE Clear Sky Optical Depth for Beam Irradiance {dimensionless}
  2.401;                                  !- ASHRAE Clear Sky Optical Depth for Diffuse Irradiance {dimensionless}

OS:SizingPeriod:DesignDay,
  {7c24348e-4f6a-4451-a72e-3017de54ace3}, !- Handle
  LOS ANGELES USC  August .4% Condns DB=>MCWB, !- Name
  33.7,                                   !- Maximum Dry-Bulb Temperature {C}
  9.6,                                    !- Daily Dry-Bulb Temperature Range {deltaC}
  100663,                                 !- Barometric Pressure {Pa}
  0.6,                                    !- Wind Speed {m/s}
  260,                                    !- Wind Direction {deg}
  ,                                       !- Sky Clearness
  No,                                     !- Rain Indicator
  No,                                     !- Snow Indicator
  21,                                     !- Day of Month
  8,                                      !- Month
  SummerDesignDay,                        !- Day Type
  No,                                     !- Daylight Saving Time Indicator
  Wetbulb,                                !- Humidity Condition Type
  ,                                       !- Humidity Condition Day Schedule Name
  21.2,                                   !- Wetbulb or DewPoint at Maximum Dry-Bulb {C}
  ,                                       !- Humidity Ratio at Maximum Dry-Bulb {kgWater/kgDryAir}
  ,                                       !- Enthalpy at Maximum Dry-Bulb {J/kg}
  DefaultMultipliers,                     !- Dry-Bulb Temperature Range Modifier Type
  ,                                       !- Dry-Bulb Temperature Range Modifier Day Schedule Name
  ASHRAETau,                              !- Solar Model Indicator
  ,                                       !- Beam Solar Day Schedule Name
  ,                                       !- Diffuse Solar Day Schedule Name
  0.383,                                  !- ASHRAE Clear Sky Optical Depth for Beam Irradiance {dimensionless}
  2.433;                                  !- ASHRAE Clear Sky Optical Depth for Diffuse Irradiance {dimensionless}

OS:SizingPeriod:DesignDay,
  {51ab7ad6-53b9-4f18-9f58-beab32201cb0}, !- Handle
  LOS ANGELES USC  September .4% Condns DB=>MCWB, !- Name
  36.3,                                   !- Maximum Dry-Bulb Temperature {C}
  9.8,                                    !- Daily Dry-Bulb Temperature Range {deltaC}
  100663,                                 !- Barometric Pressure {Pa}
  0.6,                                    !- Wind Speed {m/s}
  260,                                    !- Wind Direction {deg}
  ,                                       !- Sky Clearness
  No,                                     !- Rain Indicator
  No,                                     !- Snow Indicator
  21,                                     !- Day of Month
  9,                                      !- Month
  SummerDesignDay,                        !- Day Type
  No,                                     !- Daylight Saving Time Indicator
  Wetbulb,                                !- Humidity Condition Type
  ,                                       !- Humidity Condition Day Schedule Name
  20.1,                                   !- Wetbulb or DewPoint at Maximum Dry-Bulb {C}
  ,                                       !- Humidity Ratio at Maximum Dry-Bulb {kgWater/kgDryAir}
  ,                                       !- Enthalpy at Maximum Dry-Bulb {J/kg}
  DefaultMultipliers,                     !- Dry-Bulb Temperature Range Modifier Type
  ,                                       !- Dry-Bulb Temperature Range Modifier Day Schedule Name
  ASHRAETau,                              !- Solar Model Indicator
  ,                                       !- Beam Solar Day Schedule Name
  ,                                       !- Diffuse Solar Day Schedule Name
  0.369,                                  !- ASHRAE Clear Sky Optical Depth for Beam Irradiance {dimensionless}
  2.465;                                  !- ASHRAE Clear Sky Optical Depth for Diffuse Irradiance {dimensionless}

OS:SizingPeriod:DesignDay,
  {ee618e44-ddda-460f-8710-08f878d9bffe}, !- Handle
  LOS ANGELES USC  October .4% Condns DB=>MCWB, !- Name
  35.2,                                   !- Maximum Dry-Bulb Temperature {C}
  9.9,                                    !- Daily Dry-Bulb Temperature Range {deltaC}
  100663,                                 !- Barometric Pressure {Pa}
  0.6,                                    !- Wind Speed {m/s}
  260,                                    !- Wind Direction {deg}
  ,                                       !- Sky Clearness
  No,                                     !- Rain Indicator
  No,                                     !- Snow Indicator
  21,                                     !- Day of Month
  10,                                     !- Month
  SummerDesignDay,                        !- Day Type
  No,                                     !- Daylight Saving Time Indicator
  Wetbulb,                                !- Humidity Condition Type
  ,                                       !- Humidity Condition Day Schedule Name
  16.8,                                   !- Wetbulb or DewPoint at Maximum Dry-Bulb {C}
  ,                                       !- Humidity Ratio at Maximum Dry-Bulb {kgWater/kgDryAir}
  ,                                       !- Enthalpy at Maximum Dry-Bulb {J/kg}
  DefaultMultipliers,                     !- Dry-Bulb Temperature Range Modifier Type
  ,                                       !- Dry-Bulb Temperature Range Modifier Day Schedule Name
  ASHRAETau,                              !- Solar Model Indicator
  ,                                       !- Beam Solar Day Schedule Name
  ,                                       !- Diffuse Solar Day Schedule Name
  0.38,                                   !- ASHRAE Clear Sky Optical Depth for Beam Irradiance {dimensionless}
  2.397;                                  !- ASHRAE Clear Sky Optical Depth for Diffuse Irradiance {dimensionless}

OS:SizingPeriod:DesignDay,
  {7c694ac7-f8b5-484e-833f-94d3154630f4}, !- Handle
  LOS ANGELES USC  November .4% Condns DB=>MCWB, !- Name
  31.9,                                   !- Maximum Dry-Bulb Temperature {C}
  10.4,                                   !- Daily Dry-Bulb Temperature Range {deltaC}
  100663,                                 !- Barometric Pressure {Pa}
  0.6,                                    !- Wind Speed {m/s}
  260,                                    !- Wind Direction {deg}
  ,                                       !- Sky Clearness
  No,                                     !- Rain Indicator
  No,                                     !- Snow Indicator
  21,                                     !- Day of Month
  11,                                     !- Month
  SummerDesignDay,                        !- Day Type
  No,                                     !- Daylight Saving Time Indicator
  Wetbulb,                                !- Humidity Condition Type
  ,                                       !- Humidity Condition Day Schedule Name
  15.4,                                   !- Wetbulb or DewPoint at Maximum Dry-Bulb {C}
  ,                                       !- Humidity Ratio at Maximum Dry-Bulb {kgWater/kgDryAir}
  ,                                       !- Enthalpy at Maximum Dry-Bulb {J/kg}
  DefaultMultipliers,                     !- Dry-Bulb Temperature Range Modifier Type
  ,                                       !- Dry-Bulb Temperature Range Modifier Day Schedule Name
  ASHRAETau,                              !- Solar Model Indicator
  ,                                       !- Beam Solar Day Schedule Name
  ,                                       !- Diffuse Solar Day Schedule Name
  0.325,                                  !- ASHRAE Clear Sky Optical Depth for Beam Irradiance {dimensionless}
  2.558;                                  !- ASHRAE Clear Sky Optical Depth for Diffuse Irradiance {dimensionless}

OS:WeatherFile,
  {865e5e2f-c9ae-40d0-9f98-8e2f48bbc124}, !- Handle
  Usc Downtown La Campus,                 !- City
  CA,                                     !- State Province Region
  USA,                                    !- Country
  USC-DOWNTOWN-LA-CAMPUS,                 !- Data Source
  722874,                                 !- WMO Number
  34.024,                                 !- Latitude {deg}
  -118.291,                               !- Longitude {deg}
  -8,                                     !- Time Zone {hr}
  54.6,                                   !- Elevation {m}
  C:/Users/MichaelSawford/Documents/CBECC 2025 Data/EPW25/CA_Title24_2025_LOS-ANGELES-USC.epw, !- Url
  FDD82080,                               !- Checksum
  ,                                       !- Start Date Actual Year
  Sunday;                                 !- Start Day of Week

OS:Sizing:Parameters,
  {b93eb785-50ea-478f-b930-77c45a3f8916}, !- Handle
  1,                                      !- Heating Sizing Factor
  1;                                      !- Cooling Sizing Factor

OS:Schedule:Day,
  {99f6e010-fe00-4803-96c8-0e9b48a8ffd0}, !- Handle
  CARes2013 InsLighting Hrly,             !- Name
  {4b19c3f7-99e6-4df3-8d38-9b16ac29c52e}, !- Schedule Type Limits Name
  ,                                       !- Interpolate to Timestep
  1,                                      !- Hour 1
  0,                                      !- Minute 1
  0.023,                                  !- Value Until Time 1
  2,                                      !- Hour 2
  0,                                      !- Minute 2
  0.019,                                  !- Value Until Time 2
  3,                                      !- Hour 3
  0,                                      !- Minute 3
  0.015,                                  !- Value Until Time 3
  4,                                      !- Hour 4
  0,                                      !- Minute 4
  0.017,                                  !- Value Until Time 4
  5,                                      !- Hour 5
  0,                                      !- Minute 5
  0.021,                                  !- Value Until Time 5
  6,                                      !- Hour 6
  0,                                      !- Minute 6
  0.031,                                  !- Value Until Time 6
  7,                                      !- Hour 7
  0,                                      !- Minute 7
  0.042,                                  !- Value Until Time 7
  8,                                      !- Hour 8
  0,                                      !- Minute 8
  0.041,                                  !- Value Until Time 8
  9,                                      !- Hour 9
  0,                                      !- Minute 9
  0.034,                                  !- Value Until Time 9
  10,                                     !- Hour 10
  0,                                      !- Minute 10
  0.029,                                  !- Value Until Time 10
  11,                                     !- Hour 11
  0,                                      !- Minute 11
  0.027,                                  !- Value Until Time 11
  12,                                     !- Hour 12
  0,                                      !- Minute 12
  0.025,                                  !- Value Until Time 12
  13,                                     !- Hour 13
  0,                                      !- Minute 13
  0.021,                                  !- Value Until Time 13
  14,                                     !- Hour 14
  0,                                      !- Minute 14
  0.021,                                  !- Value Until Time 14
  15,                                     !- Hour 15
  0,                                      !- Minute 15
  0.021,                                  !- Value Until Time 15
  16,                                     !- Hour 16
  0,                                      !- Minute 16
  0.026,                                  !- Value Until Time 16
  17,                                     !- Hour 17
  0,                                      !- Minute 17
  0.031,                                  !- Value Until Time 17
  18,                                     !- Hour 18
  0,                                      !- Minute 18
  0.044,                                  !- Value Until Time 18
  19,                                     !- Hour 19
  0,                                      !- Minute 19
  0.084,                                  !- Value Until Time 19
  20,                                     !- Hour 20
  0,                                      !- Minute 20
  0.118,                                  !- Value Until Time 20
  21,                                     !- Hour 21
  0,                                      !- Minute 21
  0.113,                                  !- Value Until Time 21
  22,                                     !- Hour 22
  0,                                      !- Minute 22
  0.096,                                  !- Value Until Time 22
  23,                                     !- Hour 23
  0,                                      !- Minute 23
  0.063,                                  !- Value Until Time 23
  24,                                     !- Hour 24
  0,                                      !- Minute 24
  0.038;                                  !- Value Until Time 24

OS:ScheduleTypeLimits,
  {4b19c3f7-99e6-4df3-8d38-9b16ac29c52e}, !- Handle
  Fraction,                               !- Name
  0,                                      !- Lower Limit Value
  1,                                      !- Upper Limit Value
  Continuous,                             !- Numeric Type
  Dimensionless;                          !- Unit Type

OS:Schedule:Day,
  {101bdd68-9dd1-40f9-8aaf-838973a6f9c3}, !- Handle
  CARes2013 Occupancy Hrly,               !- Name
  {4b19c3f7-99e6-4df3-8d38-9b16ac29c52e}, !- Schedule Type Limits Name
  ,                                       !- Interpolate to Timestep
  1,                                      !- Hour 1
  0,                                      !- Minute 1
  0.035,                                  !- Value Until Time 1
  2,                                      !- Hour 2
  0,                                      !- Minute 2
  0.035,                                  !- Value Until Time 2
  3,                                      !- Hour 3
  0,                                      !- Minute 3
  0.035,                                  !- Value Until Time 3
  4,                                      !- Hour 4
  0,                                      !- Minute 4
  0.035,                                  !- Value Until Time 4
  5,                                      !- Hour 5
  0,                                      !- Minute 5
  0.035,                                  !- Value Until Time 5
  6,                                      !- Hour 6
  0,                                      !- Minute 6
  0.059,                                  !- Value Until Time 6
  7,                                      !- Hour 7
  0,                                      !- Minute 7
  0.082,                                  !- Value Until Time 7
  8,                                      !- Hour 8
  0,                                      !- Minute 8
  0.055,                                  !- Value Until Time 8
  9,                                      !- Hour 9
  0,                                      !- Minute 9
  0.027,                                  !- Value Until Time 9
  10,                                     !- Hour 10
  0,                                      !- Minute 10
  0.014,                                  !- Value Until Time 10
  11,                                     !- Hour 11
  0,                                      !- Minute 11
  0.014,                                  !- Value Until Time 11
  12,                                     !- Hour 12
  0,                                      !- Minute 12
  0.014,                                  !- Value Until Time 12
  13,                                     !- Hour 13
  0,                                      !- Minute 13
  0.014,                                  !- Value Until Time 13
  14,                                     !- Hour 14
  0,                                      !- Minute 14
  0.014,                                  !- Value Until Time 14
  15,                                     !- Hour 15
  0,                                      !- Minute 15
  0.019,                                  !- Value Until Time 15
  16,                                     !- Hour 16
  0,                                      !- Minute 16
  0.027,                                  !- Value Until Time 16
  17,                                     !- Hour 17
  0,                                      !- Minute 17
  0.041,                                  !- Value Until Time 17
  18,                                     !- Hour 18
  0,                                      !- Minute 18
  0.055,                                  !- Value Until Time 18
  19,                                     !- Hour 19
  0,                                      !- Minute 19
  0.068,                                  !- Value Until Time 19
  20,                                     !- Hour 20
  0,                                      !- Minute 20
  0.082,                                  !- Value Until Time 20
  21,                                     !- Hour 21
  0,                                      !- Minute 21
  0.082,                                  !- Value Until Time 21
  22,                                     !- Hour 22
  0,                                      !- Minute 22
  0.07,                                   !- Value Until Time 22
  23,                                     !- Hour 23
  0,                                      !- Minute 23
  0.053,                                  !- Value Until Time 23
  24,                                     !- Hour 24
  0,                                      !- Minute 24
  0.035;                                  !- Value Until Time 24

OS:Schedule:Day,
  {73088a7b-6108-47ae-b1a5-0ede114161ab}, !- Handle
  CARes2013 Equipment Hrly,               !- Name
  {4b19c3f7-99e6-4df3-8d38-9b16ac29c52e}, !- Schedule Type Limits Name
  ,                                       !- Interpolate to Timestep
  1,                                      !- Hour 1
  0,                                      !- Minute 1
  0.037,                                  !- Value Until Time 1
  2,                                      !- Hour 2
  0,                                      !- Minute 2
  0.035,                                  !- Value Until Time 2
  3,                                      !- Hour 3
  0,                                      !- Minute 3
  0.034,                                  !- Value Until Time 3
  4,                                      !- Hour 4
  0,                                      !- Minute 4
  0.034,                                  !- Value Until Time 4
  5,                                      !- Hour 5
  0,                                      !- Minute 5
  0.032,                                  !- Value Until Time 5
  6,                                      !- Hour 6
  0,                                      !- Minute 6
  0.036,                                  !- Value Until Time 6
  7,                                      !- Hour 7
  0,                                      !- Minute 7
  0.042,                                  !- Value Until Time 7
  8,                                      !- Hour 8
  0,                                      !- Minute 8
  0.044,                                  !- Value Until Time 8
  9,                                      !- Hour 9
  0,                                      !- Minute 9
  0.037,                                  !- Value Until Time 9
  10,                                     !- Hour 10
  0,                                      !- Minute 10
  0.032,                                  !- Value Until Time 10
  11,                                     !- Hour 11
  0,                                      !- Minute 11
  0.033,                                  !- Value Until Time 11
  12,                                     !- Hour 12
  0,                                      !- Minute 12
  0.033,                                  !- Value Until Time 12
  13,                                     !- Hour 13
  0,                                      !- Minute 13
  0.032,                                  !- Value Until Time 13
  14,                                     !- Hour 14
  0,                                      !- Minute 14
  0.033,                                  !- Value Until Time 14
  15,                                     !- Hour 15
  0,                                      !- Minute 15
  0.035,                                  !- Value Until Time 15
  16,                                     !- Hour 16
  0,                                      !- Minute 16
  0.037,                                  !- Value Until Time 16
  17,                                     !- Hour 17
  0,                                      !- Minute 17
  0.044,                                  !- Value Until Time 17
  18,                                     !- Hour 18
  0,                                      !- Minute 18
  0.053,                                  !- Value Until Time 18
  19,                                     !- Hour 19
  0,                                      !- Minute 19