
OS:Version,
  {a1485a75-f3bd-4708-a316-fc9969d251c3}, !- Handle
  3.10.0;                                 !- Version Identifier

OS:SimulationControl,
  {a34bb95a-e781-4049-b92d-34d1faeb9477}, !- Handle
  ,                                       !- Do Zone Sizing Calculation
  ,                                       !- Do System Sizing Calculation
  ,                                       !- Do Plant Sizing Calculation
  Yes,                                    !- Run Simulation for Sizing Periods
  Yes,                                    !- Run Simulation for Weather File Run Periods
  ,                                       !- Loads Convergence Tolerance Value {W}
  ,                                       !- Temperature Convergence Tolerance Value {deltaC}
  FullExterior,                           !- Solar Distribution
  50;                                     !- Maximum Number of Warmup Days

OS:YearDescription,
  {2085b842-69cd-405d-a2d4-5deb82c661ce}, !- Handle
  2009,                                   !- Calendar Year
  ,                                       !- Day of Week for Start Day
  ;                                       !- Is Leap Year

OS:RunPeriod,
  {73ef085f-57e4-4e1c-9f1e-6820cf327d3f}, !- Handle
  CA_Title24_2025_LOS-ANGELES-USC,        !- Name
  1,                                      !- Begin Month
  1,                                      !- Begin Day of Month
  12,                                     !- End Month
  31,                                     !- End Day of Month
  No,                                     !- Use Weather File Holidays and Special Days
  No,                                     !- Use Weather File Daylight Saving Period
  Yes,                                    !- Apply Weekend Holiday Rule
  ,                                       !- Use Weather File Rain Indicators
  ,                                       !- Use Weather File Snow Indicators
  ;                                       !- Number of Times Runperiod to be Repeated

OS:Site,
  {b14b3ba3-46d2-4cfc-b1fc-43ed036ca838}, !- Handle
  LOS ANGELES USC,                        !- Name
  38.69,                                  !- Latitude {deg}
  -121.6,                                 !- Longitude {deg}
  -8,                                     !- Time Zone {hr}
  54.5592,                                !- Elevation {m}
  Suburbs;                                !- Terrain

OS:SizingPeriod:DesignDay,
  {f4341ec6-fa7b-45e5-8780-d73afed65b63}, !- Handle
  LOS ANGELES USC Ann Htg 99.6% Condns DB, !- Name
  6.2,                                    !- Maximum Dry-Bulb Temperature {C}
  0,                                      !- Daily Dry-Bulb Temperature Range {deltaC}
  100663,                                 !- Barometric Pressure {Pa}
  0.6,                                    !- Wind Speed {m/s}
  20,                                     !- Wind Direction {deg}
  0,                                      !- Sky Clearness
  No,                                     !- Rain Indicator
  No,                                     !- Snow Indicator
  21,                                     !- Day of Month
  12,                                     !- Month
  WinterDesignDay,                        !- Day Type
  No,                                     !- Daylight Saving Time Indicator
  Wetbulb,                                !- Humidity Condition Type
  ,                                       !- Humidity Condition Day Schedule Name
  6.2,                                    !- Wetbulb or DewPoint at Maximum Dry-Bulb {C}
  ,                                       !- Humidity Ratio at Maximum Dry-Bulb {kgWater/kgDryAir}
  ,                                       !- Enthalpy at Maximum Dry-Bulb {J/kg}
  DefaultMultipliers,                     !- Dry-Bulb Temperature Range Modifier Type
  ,                                       !- Dry-Bulb Temperature Range Modifier Day Schedule Name
  ASHRAEClearSky;                         !- Solar Model Indicator

OS:SizingPeriod:DesignDay,
  {c70db5ba-f4f2-4a96-aca3-3794f6f960d0}, !- Handle
  LOS ANGELES USC  June .4% Condns DB=>MCWB, !- Name
  32.3,                                   !- Maximum Dry-Bulb Temperature {C}
  8.2,                                    !- Daily Dry-Bulb Temperature Range {deltaC}
  100663,                                 !- Barometric Pressure {Pa}
  0.6,                                    !- Wind Speed {m/s}
  260,                                    !- Wind Direction {deg}
  ,                                       !- Sky Clearness
  No,                                     !- Rain Indicator
  No,                                     !- Snow Indicator
  21,                                     !- Day of Month
  6,                                      !- Month
  SummerDesignDay,                        !- Day Type
  No,                                     !- Daylight Saving Time Indicator
  Wetbulb,                                !- Humidity Condition Type
  ,                                       !- Humidity Condition Day Schedule Name
  20.7,                                   !- Wetbulb or DewPoint at Maximum Dry-Bulb {C}
  ,                                       !- Humidity Ratio at Maximum Dry-Bulb {kgWater/kgDryAir}
  ,                                       !- Enthalpy at Maximum Dry-Bulb {J/kg}
  DefaultMultipliers,                     !- Dry-Bulb Temperature Range Modifier Type
  ,                                       !- Dry-Bulb Temperature Range Modifier Day Schedule Name
  ASHRAETau,                              !- Solar Model Indicator
  ,                                       !- Beam Solar Day Schedule Name
  ,                                       !- Diffuse Solar Day Schedule Name
  0.405,                                  !- ASHRAE Clear Sky Optical Depth for Beam Irradiance {dimensionless}
  2.324;                                  !- ASHRAE Clear Sky Optical Depth for Diffuse Irradiance {dimensionless}

OS:SizingPeriod:DesignDay,
  {0e0fee27-0b0d-4b6b-bc20-a63edba0d863}, !- Handle
  LOS ANGELES USC  July .4% Condns DB=>MCWB, !- Name
  33.8,                                   !- Maximum Dry-Bulb Temperature {C}
  9.2,                                    !- Daily Dry-Bulb Temperature Range {deltaC}
  100663,                                 !- Barometric Pressure {Pa}
  0.6,                                    !- Wind Speed {m/s}
  260,                                    !- Wind Direction {deg}
  ,                                       !- Sky Clearness
  No,                                     !- Rain Indicator
  No,                                     !- Snow Indicator
  21,                                     !- Day of Month
  7,                                      !- Month
  SummerDesignDay,                        !- Day Type
  No,                                     !- Daylight Saving Time Indicator
  Wetbulb,                                !- Humidity Condition Type
  ,                                       !- Humidity Condition Day Schedule Name
  22.1,                                   !- Wetbulb or DewPoint at Maximum Dry-Bulb {C}
  ,                                       !- Humidity Ratio at Maximum Dry-Bulb {kgWater/kgDryAir}
  ,                                       !- Enthalpy at Maximum Dry-Bulb {J/kg}
  DefaultMultipliers,                     !- Dry-Bulb Temperature Range Modifier Type
  ,                                       !- Dry-Bulb Temperature Range Modifier Day Schedule Name
  ASHRAETau,                              !- Solar Model Indicator
  ,                                       !- Beam Solar Day Schedule Name
  ,                                       !- Diffuse Solar Day Schedule Name
  0.402,                                  !- ASHRAE Clear Sky Optical Depth for Beam Irradiance {dimensionless}
  2.401;                                  !- ASHRAE Clear Sky Optical Depth for Diffuse Irradiance {dimensionless}

OS:SizingPeriod:DesignDay,
  {055c21d0-9b02-4129-b434-964228bffefd}, !- Handle
  LOS ANGELES USC  August .4% Condns DB=>MCWB, !- Name
  33.7,                                   !- Maximum Dry-Bulb Temperature {C}
  9.6,                                    !- Daily Dry-Bulb Temperature Range {deltaC}
  100663,                                 !- Barometric Pressure {Pa}
  0.6,                                    !- Wind Speed {m/s}
  260,                                    !- Wind Direction {deg}
  ,                                       !- Sky Clearness
  No,                                     !- Rain Indicator
  No,                                     !- Snow Indicator
  21,                                     !- Day of Month
  8,                                      !- Month
  SummerDesignDay,                        !- Day Type
  No,                                     !- Daylight Saving Time Indicator
  Wetbulb,                                !- Humidity Condition Type
  ,                                       !- Humidity Condition Day Schedule Name
  21.2,                                   !- Wetbulb or DewPoint at Maximum Dry-Bulb {C}
  ,                                       !- Humidity Ratio at Maximum Dry-Bulb {kgWater/kgDryAir}
  ,                                       !- Enthalpy at Maximum Dry-Bulb {J/kg}
  DefaultMultipliers,                     !- Dry-Bulb Temperature Range Modifier Type
  ,                                       !- Dry-Bulb Temperature Range Modifier Day Schedule Name
  ASHRAETau,                              !- Solar Model Indicator
  ,                                       !- Beam Solar Day Schedule Name
  ,                                       !- Diffuse Solar Day Schedule Name
  0.383,                                  !- ASHRAE Clear Sky Optical Depth for Beam Irradiance {dimensionless}
  2.433;                                  !- ASHRAE Clear Sky Optical Depth for Diffuse Irradiance {dimensionless}

OS:SizingPeriod:DesignDay,
  {a5784932-3216-46e8-91dd-104263d76109}, !- Handle
  LOS ANGELES USC  September .4% Condns DB=>MCWB, !- Name
  36.3,                                   !- Maximum Dry-Bulb Temperature {C}
  9.8,                                    !- Daily Dry-Bulb Temperature Range {deltaC}
  100663,                                 !- Barometric Pressure {Pa}
  0.6,                                    !- Wind Speed {m/s}
  260,                                    !- Wind Direction {deg}
  ,                                       !- Sky Clearness
  No,                                     !- Rain Indicator
  No,                                     !- Snow Indicator
  21,                                     !- Day of Month
  9,                                      !- Month
  SummerDesignDay,                        !- Day Type
  No,                                     !- Daylight Saving Time Indicator
  Wetbulb,                                !- Humidity Condition Type
  ,                                       !- Humidity Condition Day Schedule Name
  20.1,                                   !- Wetbulb or DewPoint at Maximum Dry-Bulb {C}
  ,                                       !- Humidity Ratio at Maximum Dry-Bulb {kgWater/kgDryAir}
  ,                                       !- Enthalpy at Maximum Dry-Bulb {J/kg}
  DefaultMultipliers,                     !- Dry-Bulb Temperature Range Modifier Type
  ,                                       !- Dry-Bulb Temperature Range Modifier Day Schedule Name
  ASHRAETau,                              !- Solar Model Indicator
  ,                                       !- Beam Solar Day Schedule Name
  ,                                       !- Diffuse Solar Day Schedule Name
  0.369,                                  !- ASHRAE Clear Sky Optical Depth for Beam Irradiance {dimensionless}
  2.465;                                  !- ASHRAE Clear Sky Optical Depth for Diffuse Irradiance {dimensionless}

OS:SizingPeriod:DesignDay,
  {fc302fcb-5181-47cd-9946-a04a596826de}, !- Handle
  LOS ANGELES USC  October .4% Condns DB=>MCWB, !- Name
  35.2,                                   !- Maximum Dry-Bulb Temperature {C}
  9.9,                                    !- Daily Dry-Bulb Temperature Range {deltaC}
  100663,                                 !- Barometric Pressure {Pa}
  0.6,                                    !- Wind Speed {m/s}
  260,                                    !- Wind Direction {deg}
  ,                                       !- Sky Clearness
  No,                                     !- Rain Indicator
  No,                                     !- Snow Indicator
  21,                                     !- Day of Month
  10,                                     !- Month
  SummerDesignDay,                        !- Day Type
  No,                                     !- Daylight Saving Time Indicator
  Wetbulb,                                !- Humidity Condition Type
  ,                                       !- Humidity Condition Day Schedule Name
  16.8,                                   !- Wetbulb or DewPoint at Maximum Dry-Bulb {C}
  ,                                       !- Humidity Ratio at Maximum Dry-Bulb {kgWater/kgDryAir}
  ,                                       !- Enthalpy at Maximum Dry-Bulb {J/kg}
  DefaultMultipliers,                     !- Dry-Bulb Temperature Range Modifier Type
  ,                                       !- Dry-Bulb Temperature Range Modifier Day Schedule Name
  ASHRAETau,                              !- Solar Model Indicator
  ,                                       !- Beam Solar Day Schedule Name
  ,                                       !- Diffuse Solar Day Schedule Name
  0.38,                                   !- ASHRAE Clear Sky Optical Depth for Beam Irradiance {dimensionless}
  2.397;                                  !- ASHRAE Clear Sky Optical Depth for Diffuse Irradiance {dimensionless}

OS:SizingPeriod:DesignDay,
  {18223de2-29f1-4a85-934f-229fe1037167}, !- Handle
  LOS ANGELES USC  November .4% Condns DB=>MCWB, !- Name
  31.9,                                   !- Maximum Dry-Bulb Temperature {C}
  10.4,                                   !- Daily Dry-Bulb Temperature Range {deltaC}
  100663,                                 !- Barometric Pressure {Pa}
  0.6,                                    !- Wind Speed {m/s}
  260,                                    !- Wind Direction {deg}
  ,                                       !- Sky Clearness
  No,                                     !- Rain Indicator
  No,                                     !- Snow Indicator
  21,                                     !- Day of Month
  11,                                     !- Month
  SummerDesignDay,                        !- Day Type
  No,                                     !- Daylight Saving Time Indicator
  Wetbulb,                                !- Humidity Condition Type
  ,                                       !- Humidity Condition Day Schedule Name
  15.4,                                   !- Wetbulb or DewPoint at Maximum Dry-Bulb {C}
  ,                                       !- Humidity Ratio at Maximum Dry-Bulb {kgWater/kgDryAir}
  ,                                       !- Enthalpy at Maximum Dry-Bulb {J/kg}
  DefaultMultipliers,                     !- Dry-Bulb Temperature Range Modifier Type
  ,                                       !- Dry-Bulb Temperature Range Modifier Day Schedule Name
  ASHRAETau,                              !- Solar Model Indicator
  ,                                       !- Beam Solar Day Schedule Name
  ,                                       !- Diffuse Solar Day Schedule Name
  0.325,                                  !- ASHRAE Clear Sky Optical Depth for Beam Irradiance {dimensionless}
  2.558;                                  !- ASHRAE Clear Sky Optical Depth for Diffuse Irradiance {dimensionless}

OS:WeatherFile,
  {9ecbed17-0e82-4f4b-ac2b-16fdde5384c9}, !- Handle
  Usc Downtown La Campus,                 !- City
  CA,                                     !- State Province Region
  USA,                                    !- Country
  USC-DOWNTOWN-LA-CAMPUS,                 !- Data Source
  722874,                                 !- WMO Number
  34.024,                                 !- Latitude {deg}
  -118.291,                               !- Longitude {deg}
  -8,                                     !- Time Zone {hr}
  54.6,                                   !- Elevation {m}
  C:/Users/MichaelSawford/Documents/CBECC 2025 Data/EPW25/CA_Title24_2025_LOS-ANGELES-USC.epw, !- Url
  FDD82080,                               !- Checksum
  ,                                       !- Start Date Actual Year
  Sunday;                                 !- Start Day of Week

OS:Sizing:Parameters,
  {66267236-8cf0-4ec1-a9d9-bd23a31c5ec8}, !- Handle
  1,                                      !- Heating Sizing Factor
  1;                                      !- Cooling Sizing Factor

OS:Material,
  {f8148ca8-029f-48a3-944a-3e41154873d7}, !- Handle
  Concrete - 140 lb/ft3 - 10 in.,         !- Name
  MediumRough,                            !- Roughness
  0.254,                                  !- Thickness {m}
  1.95140333633374,                       !- Conductivity {W/m-K}
  2239.06081041215,                       !- Density {kg/m3}
  921.096,                                !- Specific Heat {J/kg-K}
  0.9,                                    !- Thermal Absorptance
  0.7,                                    !- Solar Absorptance
  0.8;                                    !- Visible Absorptance

OS:Material,
  {613ea906-1585-407d-bb92-869df709e0d0}, !- Handle
  Compliance Insulation R8.07,            !- Name
  Smooth,                                 !- Roughness
  0.032714438,                            !- Thickness {m}
  0.0230187710627394,                     !- Conductivity {W/m-K}
  16.0184633739601,                       !- Density {kg/m3}
  1130.436;                               !- Specific Heat {J/kg-K}

OS:Material,
  {e89499dc-c368-4e4d-b739-5976dd371cf4}, !- Handle
  Compliance Insulation R0.50,            !- Name
  Smooth,                                 !- Roughness
  0.00202692,                             !- Thickness {m}
  0.0230187710627394,                     !- Conductivity {W/m-K}
  16.0184633739601,                       !- Density {kg/m3}
  1130.436;                               !- Specific Heat {J/kg-K}

OS:Material,
  {039adfdd-0358-4fdf-90b0-9462bd98a07b}, !- Handle
  Plywood - 5/8 in.,                      !- Name
  Smooth,                                 !- Roughness
  0.016002,                               !- Thickness {m}
  0.115440002246971,                      !- Conductivity {W/m-K}
  480.553901218804,                       !- Density {kg/m3}
  1884.06;                                !- Specific Heat {J/kg-K}

OS:Material,
  {8e71238e-347d-48b8-a116-22b9934ae481}, !- Handle
  Carpet - 3/4 in.,                       !- Name
  Smooth,                                 !- Roughness
  0.01905,                                !- Thickness {m}
  0.0455183217255675,                     !- Conductivity {W/m-K}
  288.332340731282,                       !- Density {kg/m3}
  1381.644,                               !- Specific Heat {J/kg-K}
  0.9,                                    !- Thermal Absorptance
  0.7,                                    !- Solar Absorptance
  0.8;                                    !- Visible Absorptance

OS:Material,
  {36c9b11f-5042-4cf4-a1ef-e45c2bf1fbfb}, !- Handle
  Stucco - 7/8 in.,                       !- Name
  MediumRough,                            !- Roughness
  0.022352,                               !- Thickness {m}
  0.700947539880412,                      !- Conductivity {W/m-K}
  1855.09824333832,                       !- Density {kg/m3}
  837.36,                                 !- Specific Heat {J/kg-K}
  0.9,                                    !- Thermal Absorptance
  0.7,                                    !- Solar Absorptance
  0.8;                                    !- Visible Absorptance

OS:Material,
  {3fbe7bf9-bd9d-4da4-8dac-bd8a4b706083}, !- Handle
  Concrete - 140 lb/ft3 - 8 in.,          !- Name
  Smooth,                                 !- Roughness
  0.2032,                                 !- Thickness {m}
  1.95140333633374,                       !- Conductivity {W/m-K}
  2239.06081041215,                       !- Density {kg/m3}
  921.096;                                !- Specific Heat {J/kg-K}

OS:Material,
  {df413671-1387-4be7-9c4f-25b1c314eff1}, !- Handle
  Compliance Insulation R1.35,            !- Name
  Smooth,                                 !- Roughness
  0.005472684,                            !- Thickness {m}
  0.0230187710627394,                     !- Conductivity {W/m-K}
  16.0184633739601,                       !- Density {kg/m3}
  1130.436;                               !- Specific Heat {J/kg-K}

OS:Material,
  {8465cfba-cd6b-4170-b86a-3f82a561115f}, !- Handle
  Compliance Insulation R0.02,            !- Name
  Smooth,                                 !- Roughness
  8.10768e-05,                            !- Thickness {m}
  0.0230187710627394,                     !- Conductivity {W/m-K}
  16.0184633739601,                       !- Density {kg/m3}
  1130.436;                               !- Specific Heat {J/kg-K}

OS:Material:NoMass,
  {72c5ac99-b102-470c-9d07-c7e97f5dcbcf}, !- Handle
  WoodFraming16inOC,                      !- Name
  Smooth,                                 !- Roughness
  0.14969365612996;                       !- Thermal Resistance {m2-K/W}

OS:Material,
  {9cac26e2-0cc1-4d1d-ba7d-c8e17eef6d02}, !- Handle
  Gypsum Board - 1/2 in.,                 !- Name
  Smooth,                                 !- Roughness
  0.0127,                                 !- Thickness {m}
  0.158656446866265,                      !- Conductivity {W/m-K}
  640.738534958406,                       !- Density {kg/m3}
  1130.436,                               !- Specific Heat {J/kg-K}
  0.9,                                    !- Thermal Absorptance
  0.7,                                    !- Solar Absorptance
  0.8;                                    !- Visible Absorptance

OS:Material:NoMass,
  {a3b9333e-57c6-40d8-aaab-541a3fd504a2}, !- Handle
  WoodFrameWall16inOC R11.25,             !- Name
  Smooth,                                 !- Roughness
  1.26865197459958;                       !- Thermal Resistance {m2-K/W}

OS:Construction,
  {dabffa2f-9a5d-452e-9f66-bb58c0963def}, !- Handle
  OtherFloorU071,                         !- Name
  ,                                       !- Surface Rendering Name
  {f8148ca8-029f-48a3-944a-3e41154873d7}, !- Layer 1
  {613ea906-1585-407d-bb92-869df709e0d0}, !- Layer 2
  {e89499dc-c368-4e4d-b739-5976dd371cf4}, !- Layer 3
  {039adfdd-0358-4fdf-90b0-9462bd98a07b}, !- Layer 4
  {8e71238e-347d-48b8-a116-22b9934ae481}; !- Layer 5

OS:Construction,
  {04a33c4f-9ed1-4ead-8c56-edb46281bd46}, !- Handle
  NonResConcreteExteriorWall,             !- Name
  ,                                       !- Surface Rendering Name
  {36c9b11f-5042-4cf4-a1ef-e45c2bf1fbfb}, !- Layer 1
  {3fbe7bf9-bd9d-4da4-8dac-bd8a4b706083}, !- Layer 2
  {df413671-1387-4be7-9c4f-25b1c314eff1}, !- Layer 3
  {8465cfba-cd6b-4170-b86a-3f82a561115f}, !- Layer 4
  {8465cfba-cd6b-4170-b86a-3f82a561115f}, !- Layer 5
  {72c5ac99-b102-470c-9d07-c7e97f5dcbcf}, !- Layer 6
  {9cac26e2-0cc1-4d1d-ba7d-c8e17eef6d02}; !- Layer 7

OS:Construction,
  {e8d5b140-0d74-48e9-abe0-61029c68e253}, !- Handle
  WoodFramedInteriorWallU099,             !- Name
  ,                                       !- Surface Rendering Name
  {27b9a0e5-2d0f-4b75-93c1-483084ac571f}, !- Layer 1
  {a3b9333e-57c6-40d8-aaab-541a3fd504a2}, !- Layer 2
  {e0f5db40-c177-454d-a791-16b493ef939c}; !- Layer 3

OS:Material,
  {27b9a0e5-2d0f-4b75-93c1-483084ac571f}, !- Handle
  Gypsum Board - 1/2 in. 1,               !- Name
  MediumRough,                            !- Roughness
  0.0127,                                 !- Thickness {m}
  0.158656446866265,                      !- Conductivity {W/m-K}
  640.738534958406,                       !- Density {kg/m3}
  1130.436,                               !- Specific Heat {J/kg-K}
  0.9,                                    !- Thermal Absorptance
  0.7,                                    !- Solar Absorptance
  0.8;                                    !- Visible Absorptance

OS:Material,
  {e0f5db40-c177-454d-a791-16b493ef939c}, !- Handle
  Gypsum Board - 1/2 in. 2,               !- Name
  Smooth,                                 !- Roughness
  0.0127,                                 !- Thickness {m}
  0.158656446866265,                      !- Conductivity {W/m-K}
  640.738534958406,                       !- Density {kg/m3}
  1130.436,                               !- Specific Heat {J/kg-K}
  0.9,                                    !- Thermal Absorptance
  0.7,                                    !- Solar Absorptance
  0.8;                                    !- Visible Absorptance

OS:WindowMaterial:SimpleGlazingSystem,
  {b0d1096b-68ac-4c14-aff5-d6d6512ad9f9}, !- Handle
  Nonres Fixed Window Material,           !- Name
  1.93060953597858,                       !- U-Factor {W/m2-K}
  0.22,                                   !- Solar Heat Gain Coefficient
  0.42;                                   !- Visible Transmittance

OS:Construction,
  {3a031b3c-aebc-454a-9756-12221560a785}, !- Handle
  Nonres Fixed Window,                    !- Name
  ,                                       !- Surface Rendering Name
  {b0d1096b-68ac-4c14-aff5-d6d6512ad9f9}; !- Layer 1

OS:Curve:Biquadratic,
  {a2281c15-9acc-4b1f-8daa-f0bd691d04c2}, !- Handle
  CoilClgDXQRatio_fTwbToadbSI,            !- Name
  0.86779,                                !- Coefficient1 Constant
  0.014245,                               !- Coefficient2 x
  0.000554,                               !- Coefficient3 x**2
  -0.007569,                              !- Coefficient4 y
  3.2e-05,                                !- Coefficient5 y**2
  -0.000191,                              !- Coefficient6 x*y
  13.89,                                  !- Minimum Value of x
  25,                                     !- Maximum Value of x
  23.89,                                  !- Minimum Value of y
  46.11,                                  !- Maximum Value of y
  0.77,                                   !- Minimum Curve Output
  1.29;                                   !- Maximum Curve Output

OS:Curve:Biquadratic,
  {597a8ce0-3d83-4d72-a2ac-70c891d32162}, !- Handle
  CoilClgDXQRatio_fTwbToadbIP,            !- Name
  0.874962,                               !- Coefficient1 Constant
  -0.00114282,                            !- Coefficient2 x
  0.00017128,                             !- Coefficient3 x**2
  -0.00296015,                            !- Coefficient4 y
  1.021e-05,                              !- Coefficient5 y**2
  -5.926e-05,                             !- Coefficient6 x*y
  57,                                     !- Minimum Value of x
  77,                                     !- Maximum Value of x
  75,                                     !- Minimum Value of y
  115,                                    !- Maximum Value of y
  0.77,                                   !- Minimum Curve Output
  1.29;                                   !- Maximum Curve Output

OS:Curve:Biquadratic,
  {5632aa94-3e68-41f5-bc0f-891ec3333bf2}, !- Handle
  CoilClgDXEIRRatio_fTwbToadbSI,          !- Name
  0.116709,                               !- Coefficient1 Constant
  0.028458,                               !- Coefficient2 x
  -0.000411,                              !- Coefficient3 x**2
  0.021422,                               !- Coefficient4 y
  0.000162,                               !- Coefficient5 y**2
  -0.00068,                               !- Coefficient6 x*y
  13.89,                                  !- Minimum Value of x
  25,                                     !- Maximum Value of x
  23.89,                                  !- Minimum Value of y
  46.11,                                  !- Maximum Value of y
  0.77,                                   !- Minimum Curve Output
  1.33;                                   !- Maximum Curve Output

OS:Curve:Biquadratic,
  {38218334-7366-48da-9707-ef7ae4fbbb96}, !- Handle
  CoilClgDXEIRRatio_fTwbToadbIP,          !- Name
  -1.06393,                               !- Coefficient1 Constant
  0.0306584,                              !- Coefficient2 x
  -0.0001269,                             !- Coefficient3 x**2
  0.0154213,                              !- Coefficient4 y
  4.97e-05,                               !- Coefficient5 y**2
  -0.0002096,                             !- Coefficient6 x*y
  57,                                     !- Minimum Value of x
  77,                                     !- Maximum Value of x
  75,                                     !- Minimum Value of y
  115,                                    !- Maximum Value of y
  0.77,                                   !- Minimum Curve Output
  1.33;                                   !- Maximum Curve Output

OS:Curve:Biquadratic,
  {05713f63-5e94-4de6-95c0-d19b83f83977}, !- Handle
  BlrHWCondBlrFIRRatio_fQRatioTewtSI,     !- Name
  1.19381,                                !- Coefficient1 Constant
  -0.110825,                              !- Coefficient2 x
  0.039514,                               !- Coefficient3 x**2