
OS:Version,
  {f9c02372-0930-4e92-ad69-3727347b631b}, !- Handle
  3.10.0;                                 !- Version Identifier

OS:SimulationControl,
  {f6ed3397-a57d-4260-a70f-9bdc376b1cda}, !- Handle
  ,                                       !- Do Zone Sizing Calculation
  ,                                       !- Do System Sizing Calculation
  ,                                       !- Do Plant Sizing Calculation
  Yes,                                    !- Run Simulation for Sizing Periods
  Yes,                                    !- Run Simulation for Weather File Run Periods
  ,                                       !- Loads Convergence Tolerance Value {W}
  ,                                       !- Temperature Convergence Tolerance Value {deltaC}
  FullExterior,                           !- Solar Distribution
  50;                                     !- Maximum Number of Warmup Days

OS:YearDescription,
  {06a25fde-3877-4984-a6bd-bed7adbde7da}, !- Handle
  2009,                                   !- Calendar Year
  ,                                       !- Day of Week for Start Day
  ;                                       !- Is Leap Year

OS:RunPeriod,
  {9456c445-2007-4440-9e59-bed8137f13c4}, !- Handle
  CA_Title24_2025_LOS-ANGELES-USC,        !- Name
  1,                                      !- Begin Month
  1,                                      !- Begin Day of Month
  12,                                     !- End Month
  31,                                     !- End Day of Month
  No,                                     !- Use Weather File Holidays and Special Days
  No,                                     !- Use Weather File Daylight Saving Period
  Yes,                                    !- Apply Weekend Holiday Rule
  ,                                       !- Use Weather File Rain Indicators
  ,                                       !- Use Weather File Snow Indicators
  ;                                       !- Number of Times Runperiod to be Repeated

OS:Site,
  {58ca19ab-1fab-45dc-8e72-e47966f23a7b}, !- Handle
  LOS ANGELES USC,                        !- Name
  38.69,                                  !- Latitude {deg}
  -121.6,                                 !- Longitude {deg}
  -8,                                     !- Time Zone {hr}
  54.5592,                                !- Elevation {m}
  Suburbs;                                !- Terrain

OS:SizingPeriod:DesignDay,
  {9b2d7ff0-0f5c-49ec-a319-f114db90f0f0}, !- Handle
  LOS ANGELES USC Ann Htg 99.6% Condns DB, !- Name
  6.2,                                    !- Maximum Dry-Bulb Temperature {C}
  0,                                      !- Daily Dry-Bulb Temperature Range {deltaC}
  100663,                                 !- Barometric Pressure {Pa}
  0.6,                                    !- Wind Speed {m/s}
  20,                                     !- Wind Direction {deg}
  0,                                      !- Sky Clearness
  No,                                     !- Rain Indicator
  No,                                     !- Snow Indicator
  21,                                     !- Day of Month
  12,                                     !- Month
  WinterDesignDay,                        !- Day Type
  No,                                     !- Daylight Saving Time Indicator
  Wetbulb,                                !- Humidity Condition Type
  ,                                       !- Humidity Condition Day Schedule Name
  6.2,                                    !- Wetbulb or DewPoint at Maximum Dry-Bulb {C}
  ,                                       !- Humidity Ratio at Maximum Dry-Bulb {kgWater/kgDryAir}
  ,                                       !- Enthalpy at Maximum Dry-Bulb {J/kg}
  DefaultMultipliers,                     !- Dry-Bulb Temperature Range Modifier Type
  ,                                       !- Dry-Bulb Temperature Range Modifier Day Schedule Name
  ASHRAEClearSky;                         !- Solar Model Indicator

OS:SizingPeriod:DesignDay,
  {6586741b-a788-44b8-bce5-85f3b0c291bd}, !- Handle
  LOS ANGELES USC  June .4% Condns DB=>MCWB, !- Name
  32.3,                                   !- Maximum Dry-Bulb Temperature {C}
  8.2,                                    !- Daily Dry-Bulb Temperature Range {deltaC}
  100663,                                 !- Barometric Pressure {Pa}
  0.6,                                    !- Wind Speed {m/s}
  260,                                    !- Wind Direction {deg}
  ,                                       !- Sky Clearness
  No,                                     !- Rain Indicator
  No,                                     !- Snow Indicator
  21,                                     !- Day of Month
  6,                                      !- Month
  SummerDesignDay,                        !- Day Type
  No,                                     !- Daylight Saving Time Indicator
  Wetbulb,                                !- Humidity Condition Type
  ,                                       !- Humidity Condition Day Schedule Name
  20.7,                                   !- Wetbulb or DewPoint at Maximum Dry-Bulb {C}
  ,                                       !- Humidity Ratio at Maximum Dry-Bulb {kgWater/kgDryAir}
  ,                                       !- Enthalpy at Maximum Dry-Bulb {J/kg}
  DefaultMultipliers,                     !- Dry-Bulb Temperature Range Modifier Type
  ,                                       !- Dry-Bulb Temperature Range Modifier Day Schedule Name
  ASHRAETau,                              !- Solar Model Indicator
  ,                                       !- Beam Solar Day Schedule Name
  ,                                       !- Diffuse Solar Day Schedule Name
  0.405,                                  !- ASHRAE Clear Sky Optical Depth for Beam Irradiance {dimensionless}
  2.324;                                  !- ASHRAE Clear Sky Optical Depth for Diffuse Irradiance {dimensionless}

OS:SizingPeriod:DesignDay,
  {5c909dd8-0fb2-4222-a468-ec1c1252979b}, !- Handle
  LOS ANGELES USC  July .4% Condns DB=>MCWB, !- Name
  33.8,                                   !- Maximum Dry-Bulb Temperature {C}
  9.2,                                    !- Daily Dry-Bulb Temperature Range {deltaC}
  100663,                                 !- Barometric Pressure {Pa}
  0.6,                                    !- Wind Speed {m/s}
  260,                                    !- Wind Direction {deg}
  ,                                       !- Sky Clearness
  No,                                     !- Rain Indicator
  No,                                     !- Snow Indicator
  21,                                     !- Day of Month
  7,                                      !- Month
  SummerDesignDay,                        !- Day Type
  No,                                     !- Daylight Saving Time Indicator
  Wetbulb,                                !- Humidity Condition Type
  ,                                       !- Humidity Condition Day Schedule Name
  22.1,                                   !- Wetbulb or DewPoint at Maximum Dry-Bulb {C}
  ,                                       !- Humidity Ratio at Maximum Dry-Bulb {kgWater/kgDryAir}
  ,                                       !- Enthalpy at Maximum Dry-Bulb {J/kg}
  DefaultMultipliers,                     !- Dry-Bulb Temperature Range Modifier Type
  ,                                       !- Dry-Bulb Temperature Range Modifier Day Schedule Name
  ASHRAETau,                              !- Solar Model Indicator
  ,                                       !- Beam Solar Day Schedule Name
  ,                                       !- Diffuse Solar Day Schedule Name
  0.402,                                  !- ASHRAE Clear Sky Optical Depth for Beam Irradiance {dimensionless}
  2.401;                                  !- ASHRAE Clear Sky Optical Depth for Diffuse Irradiance {dimensionless}

OS:SizingPeriod:DesignDay,
  {39318442-d868-4b2b-84cd-d30f59e52ea9}, !- Handle
  LOS ANGELES USC  August .4% Condns DB=>MCWB, !- Name
  33.7,                                   !- Maximum Dry-Bulb Temperature {C}
  9.6,                                    !- Daily Dry-Bulb Temperature Range {deltaC}
  100663,                                 !- Barometric Pressure {Pa}
  0.6,                                    !- Wind Speed {m/s}
  260,                                    !- Wind Direction {deg}
  ,                                       !- Sky Clearness
  No,                                     !- Rain Indicator
  No,                                     !- Snow Indicator
  21,                                     !- Day of Month
  8,                                      !- Month
  SummerDesignDay,                        !- Day Type
  No,                                     !- Daylight Saving Time Indicator
  Wetbulb,                                !- Humidity Condition Type
  ,                                       !- Humidity Condition Day Schedule Name
  21.2,                                   !- Wetbulb or DewPoint at Maximum Dry-Bulb {C}
  ,                                       !- Humidity Ratio at Maximum Dry-Bulb {kgWater/kgDryAir}
  ,                                       !- Enthalpy at Maximum Dry-Bulb {J/kg}
  DefaultMultipliers,                     !- Dry-Bulb Temperature Range Modifier Type
  ,                                       !- Dry-Bulb Temperature Range Modifier Day Schedule Name
  ASHRAETau,                              !- Solar Model Indicator
  ,                                       !- Beam Solar Day Schedule Name
  ,                                       !- Diffuse Solar Day Schedule Name
  0.383,                                  !- ASHRAE Clear Sky Optical Depth for Beam Irradiance {dimensionless}
  2.433;                                  !- ASHRAE Clear Sky Optical Depth for Diffuse Irradiance {dimensionless}

OS:SizingPeriod:DesignDay,
  {2bb7ddb8-e6d4-4a25-8bf8-10079b35c22a}, !- Handle
  LOS ANGELES USC  September .4% Condns DB=>MCWB, !- Name
  36.3,                                   !- Maximum Dry-Bulb Temperature {C}
  9.8,                                    !- Daily Dry-Bulb Temperature Range {deltaC}
  100663,                                 !- Barometric Pressure {Pa}
  0.6,                                    !- Wind Speed {m/s}
  260,                                    !- Wind Direction {deg}
  ,                                       !- Sky Clearness
  No,                                     !- Rain Indicator
  No,                                     !- Snow Indicator
  21,                                     !- Day of Month
  9,                                      !- Month
  SummerDesignDay,                        !- Day Type
  No,                                     !- Daylight Saving Time Indicator
  Wetbulb,                                !- Humidity Condition Type
  ,                                       !- Humidity Condition Day Schedule Name
  20.1,                                   !- Wetbulb or DewPoint at Maximum Dry-Bulb {C}
  ,                                       !- Humidity Ratio at Maximum Dry-Bulb {kgWater/kgDryAir}
  ,                                       !- Enthalpy at Maximum Dry-Bulb {J/kg}
  DefaultMultipliers,                     !- Dry-Bulb Temperature Range Modifier Type
  ,                                       !- Dry-Bulb Temperature Range Modifier Day Schedule Name
  ASHRAETau,                              !- Solar Model Indicator
  ,                                       !- Beam Solar Day Schedule Name
  ,                                       !- Diffuse Solar Day Schedule Name
  0.369,                                  !- ASHRAE Clear Sky Optical Depth for Beam Irradiance {dimensionless}
  2.465;                                  !- ASHRAE Clear Sky Optical Depth for Diffuse Irradiance {dimensionless}

OS:SizingPeriod:DesignDay,
  {457dc9f6-d139-4d6d-a0d5-7d5b100a6ebf}, !- Handle
  LOS ANGELES USC  October .4% Condns DB=>MCWB, !- Name
  35.2,                                   !- Maximum Dry-Bulb Temperature {C}
  9.9,                                    !- Daily Dry-Bulb Temperature Range {deltaC}
  100663,                                 !- Barometric Pressure {Pa}
  0.6,                                    !- Wind Speed {m/s}
  260,                                    !- Wind Direction {deg}
  ,                                       !- Sky Clearness
  No,                                     !- Rain Indicator
  No,                                     !- Snow Indicator
  21,                                     !- Day of Month
  10,                                     !- Month
  SummerDesignDay,                        !- Day Type
  No,                                     !- Daylight Saving Time Indicator
  Wetbulb,                                !- Humidity Condition Type
  ,                                       !- Humidity Condition Day Schedule Name
  16.8,                                   !- Wetbulb or DewPoint at Maximum Dry-Bulb {C}
  ,                                       !- Humidity Ratio at Maximum Dry-Bulb {kgWater/kgDryAir}
  ,                                       !- Enthalpy at Maximum Dry-Bulb {J/kg}
  DefaultMultipliers,                     !- Dry-Bulb Temperature Range Modifier Type
  ,                                       !- Dry-Bulb Temperature Range Modifier Day Schedule Name
  ASHRAETau,                              !- Solar Model Indicator
  ,                                       !- Beam Solar Day Schedule Name
  ,                                       !- Diffuse Solar Day Schedule Name
  0.38,                                   !- ASHRAE Clear Sky Optical Depth for Beam Irradiance {dimensionless}
  2.397;                                  !- ASHRAE Clear Sky Optical Depth for Diffuse Irradiance {dimensionless}

OS:SizingPeriod:DesignDay,
  {674d5af0-16a0-4173-a57e-9b8c54761686}, !- Handle
  LOS ANGELES USC  November .4% Condns DB=>MCWB, !- Name
  31.9,                                   !- Maximum Dry-Bulb Temperature {C}
  10.4,                                   !- Daily Dry-Bulb Temperature Range {deltaC}
  100663,                                 !- Barometric Pressure {Pa}
  0.6,                                    !- Wind Speed {m/s}
  260,                                    !- Wind Direction {deg}
  ,                                       !- Sky Clearness
  No,                                     !- Rain Indicator
  No,                                     !- Snow Indicator
  21,                                     !- Day of Month
  11,                                     !- Month
  SummerDesignDay,                        !- Day Type
  No,                                     !- Daylight Saving Time Indicator
  Wetbulb,                                !- Humidity Condition Type
  ,                                       !- Humidity Condition Day Schedule Name
  15.4,                                   !- Wetbulb or DewPoint at Maximum Dry-Bulb {C}
  ,                                       !- Humidity Ratio at Maximum Dry-Bulb {kgWater/kgDryAir}
  ,                                       !- Enthalpy at Maximum Dry-Bulb {J/kg}
  DefaultMultipliers,                     !- Dry-Bulb Temperature Range Modifier Type
  ,                                       !- Dry-Bulb Temperature Range Modifier Day Schedule Name
  ASHRAETau,                              !- Solar Model Indicator
  ,                                       !- Beam Solar Day Schedule Name
  ,                                       !- Diffuse Solar Day Schedule Name
  0.325,                                  !- ASHRAE Clear Sky Optical Depth for Beam Irradiance {dimensionless}
  2.558;                                  !- ASHRAE Clear Sky Optical Depth for Diffuse Irradiance {dimensionless}

OS:WeatherFile,
  {b433b04e-3de8-4373-92fe-fc7e92d00132}, !- Handle
  Usc Downtown La Campus,                 !- City
  CA,                                     !- State Province Region
  USA,                                    !- Country
  USC-DOWNTOWN-LA-CAMPUS,                 !- Data Source
  722874,                                 !- WMO Number
  34.024,                                 !- Latitude {deg}
  -118.291,                               !- Longitude {deg}
  -8,                                     !- Time Zone {hr}
  54.6,                                   !- Elevation {m}
  C:/Users/MichaelSawford/Documents/CBECC 2025 Data/EPW25/CA_Title24_2025_LOS-ANGELES-USC.epw, !- Url
  FDD82080,                               !- Checksum
  ,                                       !- Start Date Actual Year
  Sunday;                                 !- Start Day of Week

OS:Sizing:Parameters,
  {9d3cee9c-1105-4068-8f07-95df6e87a7bf}, !- Handle
  1,                                      !- Heating Sizing Factor
  1;                                      !- Cooling Sizing Factor

OS:Material,
  {af97d957-8ee7-408f-a354-9df0ffa97f9d}, !- Handle
  Plywood - 5/8 in.,                      !- Name
  Smooth,                                 !- Roughness
  0.016002,                               !- Thickness {m}
  0.115440002246971,                      !- Conductivity {W/m-K}
  480.553901218804,                       !- Density {kg/m3}
  1884.06;                                !- Specific Heat {J/kg-K}

OS:Material,
  {8c982f60-daae-4a51-b8de-30d49489010d}, !- Handle
  Carpet - 3/4 in.,                       !- Name
  Smooth,                                 !- Roughness
  0.01905,                                !- Thickness {m}
  0.0455183217255675,                     !- Conductivity {W/m-K}
  288.332340731282,                       !- Density {kg/m3}
  1381.644,                               !- Specific Heat {J/kg-K}
  0.9,                                    !- Thermal Absorptance
  0.7,                                    !- Solar Absorptance
  0.8;                                    !- Visible Absorptance

OS:Material,
  {fd647aeb-db1c-4fc4-bcb4-3b9f49f8d293}, !- Handle
  Stucco - 7/8 in.,                       !- Name
  MediumRough,                            !- Roughness
  0.022352,                               !- Thickness {m}
  0.700947539880412,                      !- Conductivity {W/m-K}
  1855.09824333832,                       !- Density {kg/m3}
  837.36,                                 !- Specific Heat {J/kg-K}
  0.9,                                    !- Thermal Absorptance
  0.7,                                    !- Solar Absorptance
  0.8;                                    !- Visible Absorptance

OS:Material,
  {8dd40e82-dbda-4368-81aa-30806d583892}, !- Handle
  Compliance Insulation R0.02,            !- Name
  Smooth,                                 !- Roughness
  8.10768e-05,                            !- Thickness {m}
  0.0230187710627394,                     !- Conductivity {W/m-K}
  16.0184633739601,                       !- Density {kg/m3}
  1130.436;                               !- Specific Heat {J/kg-K}

OS:Material,
  {2844558f-8eb3-43c8-8684-3431a006042e}, !- Handle
  Gypsum Board - 1/2 in.,                 !- Name
  Smooth,                                 !- Roughness
  0.0127,                                 !- Thickness {m}
  0.158656446866265,                      !- Conductivity {W/m-K}
  640.738534958406,                       !- Density {kg/m3}
  1130.436,                               !- Specific Heat {J/kg-K}
  0.9,                                    !- Thermal Absorptance
  0.7,                                    !- Solar Absorptance
  0.8;                                    !- Visible Absorptance

OS:Material,
  {63c7147c-50e9-4c93-b1f1-0169d8d7798f}, !- Handle
  Compliance Insulation R14.60,           !- Name
  Smooth,                                 !- Roughness
  0.059186064,                            !- Thickness {m}
  0.0230187710627394,                     !- Conductivity {W/m-K}
  16.0184633739601,                       !- Density {kg/m3}
  1130.436;                               !- Specific Heat {J/kg-K}

OS:Material,
  {a27e7b6d-b44f-433e-86f4-c8a644cee088}, !- Handle
  Compliance Insulation R1.41,            !- Name
  Smooth,                                 !- Roughness
  0.0057159144,                           !- Thickness {m}
  0.0230187710627394,                     !- Conductivity {W/m-K}
  16.0184633739601,                       !- Density {kg/m3}
  1130.436;                               !- Specific Heat {J/kg-K}

OS:Material,
  {dce94868-9de6-49b2-9030-a9e060d5a37d}, !- Handle
  Air - Metal Wall Framing - 16 or 24 in. OC, !- Name
  Smooth,                                 !- Roughness
  0.1397,                                 !- Thickness {m}
  1.22016793979183,                       !- Conductivity {W/m-K}
  1.28147706991681,                       !- Density {kg/m3}
  1004.832;                               !- Specific Heat {J/kg-K}

OS:Material,
  {3ee2b16e-20a3-4855-9704-cd35080eeaf2}, !- Handle
  Gypsum Board - 5/8 in.,                 !- Name
  MediumRough,                            !- Roughness
  0.016002,                               !- Thickness {m}
  0.158656446866265,                      !- Conductivity {W/m-K}
  640.738534958406,                       !- Density {kg/m3}
  1130.436,                               !- Specific Heat {J/kg-K}
  0.9,                                    !- Thermal Absorptance
  0.7,                                    !- Solar Absorptance
  0.8;                                    !- Visible Absorptance

OS:Material,
  {a71490e0-bc16-41e2-9963-25b6fa90889b}, !- Handle
  Compliance Insulation R9.83,            !- Name
  MediumRough,                            !- Roughness
  0.03986911,                             !- Thickness {m}
  0.0230187710627394,                     !- Conductivity {W/m-K}
  16.0184633739601,                       !- Density {kg/m3}
  1130.436,                               !- Specific Heat {J/kg-K}
  0.9,                                    !- Thermal Absorptance
  0.7,                                    !- Solar Absorptance
  0.8;                                    !- Visible Absorptance

OS:Construction,
  {0872576d-ffee-4b44-9ed7-1f67f757b4ca}, !- Handle
  MetalFrameWallU055,                     !- Name
  ,                                       !- Surface Rendering Name
  {fd647aeb-db1c-4fc4-bcb4-3b9f49f8d293}, !- Layer 1
  {63c7147c-50e9-4c93-b1f1-0169d8d7798f}, !- Layer 2
  {a27e7b6d-b44f-433e-86f4-c8a644cee088}, !- Layer 3
  {8dd40e82-dbda-4368-81aa-30806d583892}, !- Layer 4
  {8dd40e82-dbda-4368-81aa-30806d583892}, !- Layer 5
  {dce94868-9de6-49b2-9030-a9e060d5a37d}, !- Layer 6
  {2844558f-8eb3-43c8-8684-3431a006042e}; !- Layer 7

OS:Construction,
  {ec4860fd-34e1-4541-8ed4-be0dcfe35896}, !- Handle
  MetalFrameWallInterior,                 !- Name
  ,                                       !- Surface Rendering Name
  {3ee2b16e-20a3-4855-9704-cd35080eeaf2}, !- Layer 1
  {8028e943-3ab9-4323-9fea-5d389799b11c}, !- Layer 2
  {3ee2b16e-20a3-4855-9704-cd35080eeaf2}; !- Layer 3

OS:Material,
  {8028e943-3ab9-4323-9fea-5d389799b11c}, !- Handle
  Air - Metal Wall Framing - 16 or 24 in. OC 1, !- Name
  Smooth,                                 !- Roughness
  0.1397,                                 !- Thickness {m}
  1.22016793979183,                       !- Conductivity {W/m-K}
  1.28147706991681,                       !- Density {kg/m3}
  1004.832;                               !- Specific Heat {J/kg-K}

OS:Construction,
  {f0644d9d-6414-411f-a345-071d85ec9635}, !- Handle
  OtherFloorU071,                         !- Name
  ,                                       !- Surface Rendering Name
  {a71490e0-bc16-41e2-9963-25b6fa90889b}, !- Layer 1
  {af97d957-8ee7-408f-a354-9df0ffa97f9d}, !- Layer 2
  {8c982f60-daae-4a51-b8de-30d49489010d}; !- Layer 3

OS:WindowMaterial:SimpleGlazingSystem,
  {ca109d77-b278-4121-b28c-ce56565a2bc8}, !- Handle
  Nonres Fixed Window Material,           !- Name
  1.93060953597858,                       !- U-Factor {W/m2-K}
  0.22,                                   !- Solar Heat Gain Coefficient
  0.42;                                   !- Visible Transmittance

OS:Construction,
  {91e8b38f-1ae0-48f9-bb9d-ec12f081236b}, !- Handle
  Nonres Fixed Window,                    !- Name
  ,                                       !- Surface Rendering Name
  {ca109d77-b278-4121-b28c-ce56565a2bc8}; !- Layer 1

OS:Curve:Biquadratic,
  {2bbc837c-1aaf-4a63-aedf-837f45e1707e}, !- Handle
  CoilClgDXQRatio_fTwbToadbSI,            !- Name
  0.86779,                                !- Coefficient1 Constant
  0.014245,                               !- Coefficient2 x
  0.000554,                               !- Coefficient3 x**2
  -0.007569,                              !- Coefficient4 y
  3.2e-05,                                !- Coefficient5 y**2
  -0.000191,                              !- Coefficient6 x*y
  13.89,                                  !- Minimum Value of x
  25,                                     !- Maximum Value of x
  23.89,                                  !- Minimum Value of y
  46.11,                                  !- Maximum Value of y
  0.77,                                   !- Minimum Curve Output
  1.29;                                   !- Maximum Curve Output

OS:Curve:Biquadratic,
  {24665d1f-5451-4791-81c8-c48c1e6ce7d4}, !- Handle
  CoilClgDXQRatio_fTwbToadbIP,            !- Name
  0.874962,                               !- Coefficient1 Constant
  -0.00114282,                            !- Coefficient2 x
  0.00017128,                             !- Coefficient3 x**2
  -0.00296015,                            !- Coefficient4 y
  1.021e-05,                              !- Coefficient5 y**2
  -5.926e-05,                             !- Coefficient6 x*y
  57,                                     !- Minimum Value of x
  77,                                     !- Maximum Value of x
  75,                                     !- Minimum Value of y
  115,                                    !- Maximum Value of y
  0.77,                                   !- Minimum Curve Output
  1.29;                                   !- Maximum Curve Output

OS:Curve:Biquadratic,
  {d8165916-4840-458b-87b6-c434aaaf461d}, !- Handle
  CoilClgDXEIRRatio_fTwbToadbSI,          !- Name
  0.116709,                               !- Coefficient1 Constant
  0.028458,                               !- Coefficient2 x
  -0.000411,                              !- Coefficient3 x**2
  0.021422,                               !- Coefficient4 y
  0.000162,                               !- Coefficient5 y**2
  -0.00068,                               !- Coefficient6 x*y
  13.89,                                  !- Minimum Value of x
  25,                                     !- Maximum Value of x
  23.89,                                  !- Minimum Value of y
  46.11,                                  !- Maximum Value of y
  0.77,                                   !- Minimum Curve Output
  1.33;                                   !- Maximum Curve Output

OS:Curve:Biquadratic,
  {42f4431e-f5b1-4779-be37-b1512ed31a71}, !- Handle
  CoilClgDXEIRRatio_fTwbToadbIP,          !- Name
  -1.06393,                               !- Coefficient1 Constant
  0.0306584,                              !- Coefficient2 x
  -0.0001269,                             !- Coefficient3 x**2
  0.0154213,                              !- Coefficient4 y
  4.97e-05,                               !- Coefficient5 y**2
  -0.0002096,                             !- Coefficient6 x*y
  57,                                     !- Minimum Value of x
  77,                                     !- Maximum Value of x
  75,                                     !- Minimum Value of y
  115,                                    !- Maximum Value of y
  0.77,                                   !- Minimum Curve Output
  1.33;                                   !- Maximum Curve Output

OS:Curve:Biquadratic,
  {ebc6648e-5a5d-499d-b1b4-853d0dbdde63}, !- Handle
  BlrHWCondBlrFIRRatio_fQRatioTewtSI,     !- Name
  1.19381,                                !- Coefficient1 Constant
  -0.110825,                              !- Coefficient2 x
  0.039514,                               !- Coefficient3 x**2
  -0.006371,                              !- Coefficient4 y
  3.8e-05,                                !- Coefficient5 y**2
  0.00083,                                !- Coefficient6 x*y
  0.1,                                    !- Minimum Value of x
  1,                                      !- Maximum Value of x
  15.56,                                  !- Minimum Value of y
  71.1,                                   !- Maximum Value of y
  0.93,                                   !- Minimum Curve Output
  1.05;                                   !- Maximum Curve Output

OS:Curve:Cubic,
  {2d710959-4a65-453a-b756-c112b4c7aafb}, !- Handle
  FanVSDGoodSpResetPwrRatio_fCFMRatio,    !- Name
  0.04076,                                !- Coefficient1 Constant
  0.088045,                               !- Coefficient2 x
  -0.072926,                              !- Coefficient3 x**2
  0.94374,                                !- Coefficient4 x**3
  0.342,                                  !- Minimum Value of x
  1,                                      !- Maximum Value of x
  0.1,                                    !- Minimum Curve Output
  1;                                      !- Maximum Curve Output

OS:Curve:Cubic,