
OS:Version,
  {66fff52e-9a9c-4096-a20c-5caa0d2acf6f}, !- Handle
  3.10.0;                                 !- Version Identifier

OS:SimulationControl,
  {b2e44311-f5b7-4ff4-ac3c-f63a56a9adf1}, !- Handle
  ,                                       !- Do Zone Sizing Calculation
  ,                                       !- Do System Sizing Calculation
  ,                                       !- Do Plant Sizing Calculation
  No,                                     !- Run Simulation for Sizing Periods
  Yes,                                    !- Run Simulation for Weather File Run Periods
  ,                                       !- Loads Convergence Tolerance Value {W}
  ,                                       !- Temperature Convergence Tolerance Value {deltaC}
  FullExterior,                           !- Solar Distribution
  50;                                     !- Maximum Number of Warmup Days

OS:YearDescription,
  {35ee6f3d-fa77-43e4-acef-344f2e9a986d}, !- Handle
  2009,                                   !- Calendar Year
  ,                                       !- Day of Week for Start Day
  ;                                       !- Is Leap Year

OS:RunPeriod,
  {be7bc5fe-6b47-4787-bc89-6b184d7b2580}, !- Handle
  CA_Title24_2025_LOS-ANGELES-USC,        !- Name
  1,                                      !- Begin Month
  1,                                      !- Begin Day of Month
  12,                                     !- End Month
  31,                                     !- End Day of Month
  No,                                     !- Use Weather File Holidays and Special Days
  No,                                     !- Use Weather File Daylight Saving Period
  Yes,                                    !- Apply Weekend Holiday Rule
  ,                                       !- Use Weather File Rain Indicators
  ,                                       !- Use Weather File Snow Indicators
  ;                                       !- Number of Times Runperiod to be Repeated

OS:Site,
  {7cb45c8f-1cc7-408d-a386-6ac3f5e19e36}, !- Handle
  LOS ANGELES USC,                        !- Name
  0,                                      !- Latitude {deg}
  0,                                      !- Longitude {deg}
  -8,                                     !- Time Zone {hr}
  54.5592,                                !- Elevation {m}
  Suburbs;                                !- Terrain

OS:SizingPeriod:DesignDay,
  {6da0c452-b1e0-41d7-a0da-7245a6438247}, !- Handle
  LOS ANGELES USC Ann Htg 99.6% Condns DB, !- Name
  6.2,                                    !- Maximum Dry-Bulb Temperature {C}
  0,                                      !- Daily Dry-Bulb Temperature Range {deltaC}
  100663,                                 !- Barometric Pressure {Pa}
  0.6,                                    !- Wind Speed {m/s}
  20,                                     !- Wind Direction {deg}
  0,                                      !- Sky Clearness
  No,                                     !- Rain Indicator
  No,                                     !- Snow Indicator
  21,                                     !- Day of Month
  12,                                     !- Month
  WinterDesignDay,                        !- Day Type
  No,                                     !- Daylight Saving Time Indicator
  Wetbulb,                                !- Humidity Condition Type
  ,                                       !- Humidity Condition Day Schedule Name
  6.2,                                    !- Wetbulb or DewPoint at Maximum Dry-Bulb {C}
  ,                                       !- Humidity Ratio at Maximum Dry-Bulb {kgWater/kgDryAir}
  ,                                       !- Enthalpy at Maximum Dry-Bulb {J/kg}
  DefaultMultipliers,                     !- Dry-Bulb Temperature Range Modifier Type
  ,                                       !- Dry-Bulb Temperature Range Modifier Day Schedule Name
  ASHRAEClearSky;                         !- Solar Model Indicator

OS:SizingPeriod:DesignDay,
  {8844bf6f-124e-4790-9fa2-51d796bad8fa}, !- Handle
  LOS ANGELES USC  June .4% Condns DB=>MCWB, !- Name
  32.3,                                   !- Maximum Dry-Bulb Temperature {C}
  8.2,                                    !- Daily Dry-Bulb Temperature Range {deltaC}
  100663,                                 !- Barometric Pressure {Pa}
  0.6,                                    !- Wind Speed {m/s}
  260,                                    !- Wind Direction {deg}
  ,                                       !- Sky Clearness
  No,                                     !- Rain Indicator
  No,                                     !- Snow Indicator
  21,                                     !- Day of Month
  6,                                      !- Month
  SummerDesignDay,                        !- Day Type
  No,                                     !- Daylight Saving Time Indicator
  Wetbulb,                                !- Humidity Condition Type
  ,                                       !- Humidity Condition Day Schedule Name
  20.7,                                   !- Wetbulb or DewPoint at Maximum Dry-Bulb {C}
  ,                                       !- Humidity Ratio at Maximum Dry-Bulb {kgWater/kgDryAir}
  ,                                       !- Enthalpy at Maximum Dry-Bulb {J/kg}
  DefaultMultipliers,                     !- Dry-Bulb Temperature Range Modifier Type
  ,                                       !- Dry-Bulb Temperature Range Modifier Day Schedule Name
  ASHRAETau,                              !- Solar Model Indicator
  ,                                       !- Beam Solar Day Schedule Name
  ,                                       !- Diffuse Solar Day Schedule Name
  0.405,                                  !- ASHRAE Clear Sky Optical Depth for Beam Irradiance {dimensionless}
  2.324;                                  !- ASHRAE Clear Sky Optical Depth for Diffuse Irradiance {dimensionless}

OS:SizingPeriod:DesignDay,
  {a5041d84-7d3f-4382-b77b-a9c913c46831}, !- Handle
  LOS ANGELES USC  July .4% Condns DB=>MCWB, !- Name
  33.8,                                   !- Maximum Dry-Bulb Temperature {C}
  9.2,                                    !- Daily Dry-Bulb Temperature Range {deltaC}
  100663,                                 !- Barometric Pressure {Pa}
  0.6,                                    !- Wind Speed {m/s}
  260,                                    !- Wind Direction {deg}
  ,                                       !- Sky Clearness
  No,                                     !- Rain Indicator
  No,                                     !- Snow Indicator
  21,                                     !- Day of Month
  7,                                      !- Month
  SummerDesignDay,                        !- Day Type
  No,                                     !- Daylight Saving Time Indicator
  Wetbulb,                                !- Humidity Condition Type
  ,                                       !- Humidity Condition Day Schedule Name
  22.1,                                   !- Wetbulb or DewPoint at Maximum Dry-Bulb {C}
  ,                                       !- Humidity Ratio at Maximum Dry-Bulb {kgWater/kgDryAir}
  ,                                       !- Enthalpy at Maximum Dry-Bulb {J/kg}
  DefaultMultipliers,                     !- Dry-Bulb Temperature Range Modifier Type
  ,                                       !- Dry-Bulb Temperature Range Modifier Day Schedule Name
  ASHRAETau,                              !- Solar Model Indicator
  ,                                       !- Beam Solar Day Schedule Name
  ,                                       !- Diffuse Solar Day Schedule Name
  0.402,                                  !- ASHRAE Clear Sky Optical Depth for Beam Irradiance {dimensionless}
  2.401;                                  !- ASHRAE Clear Sky Optical Depth for Diffuse Irradiance {dimensionless}

OS:SizingPeriod:DesignDay,
  {b829c97c-2403-4aab-9a58-22042cf87890}, !- Handle
  LOS ANGELES USC  August .4% Condns DB=>MCWB, !- Name
  33.7,                                   !- Maximum Dry-Bulb Temperature {C}
  9.6,                                    !- Daily Dry-Bulb Temperature Range {deltaC}
  100663,                                 !- Barometric Pressure {Pa}
  0.6,                                    !- Wind Speed {m/s}
  260,                                    !- Wind Direction {deg}
  ,                                       !- Sky Clearness
  No,                                     !- Rain Indicator
  No,                                     !- Snow Indicator
  21,                                     !- Day of Month
  8,                                      !- Month
  SummerDesignDay,                        !- Day Type
  No,                                     !- Daylight Saving Time Indicator
  Wetbulb,                                !- Humidity Condition Type
  ,                                       !- Humidity Condition Day Schedule Name
  21.2,                                   !- Wetbulb or DewPoint at Maximum Dry-Bulb {C}
  ,                                       !- Humidity Ratio at Maximum Dry-Bulb {kgWater/kgDryAir}
  ,                                       !- Enthalpy at Maximum Dry-Bulb {J/kg}
  DefaultMultipliers,                     !- Dry-Bulb Temperature Range Modifier Type
  ,                                       !- Dry-Bulb Temperature Range Modifier Day Schedule Name
  ASHRAETau,                              !- Solar Model Indicator
  ,                                       !- Beam Solar Day Schedule Name
  ,                                       !- Diffuse Solar Day Schedule Name
  0.383,                                  !- ASHRAE Clear Sky Optical Depth for Beam Irradiance {dimensionless}
  2.433;                                  !- ASHRAE Clear Sky Optical Depth for Diffuse Irradiance {dimensionless}

OS:SizingPeriod:DesignDay,
  {5cdd2a5d-cadf-4023-9757-3c054df5c447}, !- Handle
  LOS ANGELES USC  September .4% Condns DB=>MCWB, !- Name
  36.3,                                   !- Maximum Dry-Bulb Temperature {C}
  9.8,                                    !- Daily Dry-Bulb Temperature Range {deltaC}
  100663,                                 !- Barometric Pressure {Pa}
  0.6,                                    !- Wind Speed {m/s}
  260,                                    !- Wind Direction {deg}
  ,                                       !- Sky Clearness
  No,                                     !- Rain Indicator
  No,                                     !- Snow Indicator
  21,                                     !- Day of Month
  9,                                      !- Month
  SummerDesignDay,                        !- Day Type
  No,                                     !- Daylight Saving Time Indicator
  Wetbulb,                                !- Humidity Condition Type
  ,                                       !- Humidity Condition Day Schedule Name
  20.1,                                   !- Wetbulb or DewPoint at Maximum Dry-Bulb {C}
  ,                                       !- Humidity Ratio at Maximum Dry-Bulb {kgWater/kgDryAir}
  ,                                       !- Enthalpy at Maximum Dry-Bulb {J/kg}
  DefaultMultipliers,                     !- Dry-Bulb Temperature Range Modifier Type
  ,                                       !- Dry-Bulb Temperature Range Modifier Day Schedule Name
  ASHRAETau,                              !- Solar Model Indicator
  ,                                       !- Beam Solar Day Schedule Name
  ,                                       !- Diffuse Solar Day Schedule Name
  0.369,                                  !- ASHRAE Clear Sky Optical Depth for Beam Irradiance {dimensionless}
  2.465;                                  !- ASHRAE Clear Sky Optical Depth for Diffuse Irradiance {dimensionless}

OS:SizingPeriod:DesignDay,
  {89ee7c44-db0d-4537-8151-b1f71fb3f605}, !- Handle
  LOS ANGELES USC  October .4% Condns DB=>MCWB, !- Name
  35.2,                                   !- Maximum Dry-Bulb Temperature {C}
  9.9,                                    !- Daily Dry-Bulb Temperature Range {deltaC}
  100663,                                 !- Barometric Pressure {Pa}
  0.6,                                    !- Wind Speed {m/s}
  260,                                    !- Wind Direction {deg}
  ,                                       !- Sky Clearness
  No,                                     !- Rain Indicator
  No,                                     !- Snow Indicator
  21,                                     !- Day of Month
  10,                                     !- Month
  SummerDesignDay,                        !- Day Type
  No,                                     !- Daylight Saving Time Indicator
  Wetbulb,                                !- Humidity Condition Type
  ,                                       !- Humidity Condition Day Schedule Name
  16.8,                                   !- Wetbulb or DewPoint at Maximum Dry-Bulb {C}
  ,                                       !- Humidity Ratio at Maximum Dry-Bulb {kgWater/kgDryAir}
  ,                                       !- Enthalpy at Maximum Dry-Bulb {J/kg}
  DefaultMultipliers,                     !- Dry-Bulb Temperature Range Modifier Type
  ,                                       !- Dry-Bulb Temperature Range Modifier Day Schedule Name
  ASHRAETau,                              !- Solar Model Indicator
  ,                                       !- Beam Solar Day Schedule Name
  ,                                       !- Diffuse Solar Day Schedule Name
  0.38,                                   !- ASHRAE Clear Sky Optical Depth for Beam Irradiance {dimensionless}
  2.397;                                  !- ASHRAE Clear Sky Optical Depth for Diffuse Irradiance {dimensionless}

OS:SizingPeriod:DesignDay,
  {7ae52883-7bd3-4821-9daf-932f1001f6f8}, !- Handle
  LOS ANGELES USC  November .4% Condns DB=>MCWB, !- Name
  31.9,                                   !- Maximum Dry-Bulb Temperature {C}
  10.4,                                   !- Daily Dry-Bulb Temperature Range {deltaC}
  100663,                                 !- Barometric Pressure {Pa}
  0.6,                                    !- Wind Speed {m/s}
  260,                                    !- Wind Direction {deg}
  ,                                       !- Sky Clearness
  No,                                     !- Rain Indicator
  No,                                     !- Snow Indicator
  21,                                     !- Day of Month
  11,                                     !- Month
  SummerDesignDay,                        !- Day Type
  No,                                     !- Daylight Saving Time Indicator
  Wetbulb,                                !- Humidity Condition Type
  ,                                       !- Humidity Condition Day Schedule Name
  15.4,                                   !- Wetbulb or DewPoint at Maximum Dry-Bulb {C}
  ,                                       !- Humidity Ratio at Maximum Dry-Bulb {kgWater/kgDryAir}
  ,                                       !- Enthalpy at Maximum Dry-Bulb {J/kg}
  DefaultMultipliers,                     !- Dry-Bulb Temperature Range Modifier Type
  ,                                       !- Dry-Bulb Temperature Range Modifier Day Schedule Name
  ASHRAETau,                              !- Solar Model Indicator
  ,                                       !- Beam Solar Day Schedule Name
  ,                                       !- Diffuse Solar Day Schedule Name
  0.325,                                  !- ASHRAE Clear Sky Optical Depth for Beam Irradiance {dimensionless}
  2.558;                                  !- ASHRAE Clear Sky Optical Depth for Diffuse Irradiance {dimensionless}

OS:WeatherFile,
  {8dd08379-bbc9-41ca-9f78-fc17a183289b}, !- Handle
  Usc Downtown La Campus,                 !- City
  CA,                                     !- State Province Region
  USA,                                    !- Country
  USC-DOWNTOWN-LA-CAMPUS,                 !- Data Source
  722874,                                 !- WMO Number
  34.024,                                 !- Latitude {deg}
  -118.291,                               !- Longitude {deg}
  -8,                                     !- Time Zone {hr}
  54.6,                                   !- Elevation {m}
  C:/Users/MichaelSawford/Documents/CBECC 2025 Data/EPW25/CA_Title24_2025_LOS-ANGELES-USC.epw, !- Url
  FDD82080,                               !- Checksum
  ,                                       !- Start Date Actual Year
  Sunday;                                 !- Start Day of Week

OS:Sizing:Parameters,
  {227550e6-4f72-493a-b775-4dbd2c273769}, !- Handle
  1,                                      !- Heating Sizing Factor
  1;                                      !- Cooling Sizing Factor

OS:Material,
  {18a29fc2-37cc-4ecf-86e3-96d95fb5fb40}, !- Handle
  Stucco - 7/8 in.,                       !- Name
  MediumRough,                            !- Roughness
  0.022352,                               !- Thickness {m}
  0.700947539880412,                      !- Conductivity {W/m-K}
  1855.09824333832,                       !- Density {kg/m3}
  837.36,                                 !- Specific Heat {J/kg-K}
  0.9,                                    !- Thermal Absorptance
  0.7,                                    !- Solar Absorptance
  0.8;                                    !- Visible Absorptance

OS:Material,
  {5721b0eb-1e8e-4d12-a3a2-a66fbaccc2a5}, !- Handle
  Air - Metal Wall Framing - 16 or 24 in. OC, !- Name
  Smooth,                                 !- Roughness
  0.1397,                                 !- Thickness {m}
  1.22016793979183,                       !- Conductivity {W/m-K}
  1.28147706991681,                       !- Density {kg/m3}
  1004.832;                               !- Specific Heat {J/kg-K}

OS:Material,
  {e8ff09a3-81a9-422f-8a30-acef650e7426}, !- Handle
  Gypsum Board - 1/2 in.,                 !- Name
  Smooth,                                 !- Roughness
  0.0127,                                 !- Thickness {m}
  0.158656446866265,                      !- Conductivity {W/m-K}
  640.738534958406,                       !- Density {kg/m3}
  1130.436,                               !- Specific Heat {J/kg-K}
  0.9,                                    !- Thermal Absorptance
  0.7,                                    !- Solar Absorptance
  0.8;                                    !- Visible Absorptance

OS:Material,
  {6d1b811e-2cb6-45db-a722-330ee1ec05a6}, !- Handle
  Gypsum Board - 5/8 in.,                 !- Name
  MediumRough,                            !- Roughness
  0.016002,                               !- Thickness {m}
  0.158656446866265,                      !- Conductivity {W/m-K}
  640.738534958406,                       !- Density {kg/m3}
  1130.436,                               !- Specific Heat {J/kg-K}
  0.9,                                    !- Thermal Absorptance
  0.7,                                    !- Solar Absorptance
  0.8;                                    !- Visible Absorptance

OS:Material,
  {14868974-c2fb-45bb-b8ce-7baf9b64b98a}, !- Handle
  Metal Standing Seam - 1/16 in.,         !- Name
  MediumRough,                            !- Roughness
  0.0015875,                              !- Thickness {m}
  2.21534037295537,                       !- Conductivity {W/m-K}
  7820.53418843482,                       !- Density {kg/m3}
  502.416,                                !- Specific Heat {J/kg-K}
  0.8,                                    !- Thermal Absorptance
  0.75,                                   !- Solar Absorptance
  0.8;                                    !- Visible Absorptance

OS:Material,
  {21170978-03bc-4e79-b8a1-69cb6f9cccce}, !- Handle
  Compliance Insulation R34.93,           !- Name
  Smooth,                                 !- Roughness
  0.141600682,                            !- Thickness {m}
  0.0230187710627394,                     !- Conductivity {W/m-K}
  16.0184633739601,                       !- Density {kg/m3}
  1130.436,                               !- Specific Heat {J/kg-K}
  0.9,                                    !- Thermal Absorptance
  0.7,                                    !- Solar Absorptance
  0.8;                                    !- Visible Absorptance

OS:Material,
  {6f38ddd3-cf77-4290-bd61-7cb8247f236f}, !- Handle
  Acoustic Tile - 3/4 in.,                !- Name
  MediumRough,                            !- Roughness
  0.01905,                                !- Thickness {m}
  0.0576334643901672,                     !- Conductivity {W/m-K}
  288.332340731282,                       !- Density {kg/m3}
  795.492,                                !- Specific Heat {J/kg-K}
  0.9,                                    !- Thermal Absorptance
  0.7,                                    !- Solar Absorptance
  0.8;                                    !- Visible Absorptance

OS:Material,
  {3f3a1a4a-95aa-4910-82d0-fa6ed50cbe2b}, !- Handle
  Compliance Insulation R14.60,           !- Name
  Smooth,                                 !- Roughness
  0.059186064,                            !- Thickness {m}
  0.0230187710627394,                     !- Conductivity {W/m-K}
  16.0184633739601,                       !- Density {kg/m3}
  1130.436;                               !- Specific Heat {J/kg-K}

OS:Material,
  {fed51a42-fd2b-4150-8a67-aa3b1e349a3e}, !- Handle
  Compliance Insulation R1.41,            !- Name
  Smooth,                                 !- Roughness
  0.0057159144,                           !- Thickness {m}
  0.0230187710627394,                     !- Conductivity {W/m-K}
  16.0184633739601,                       !- Density {kg/m3}
  1130.436;                               !- Specific Heat {J/kg-K}

OS:Material,
  {c8d7ad89-5993-435c-b4d9-41667cab5a0a}, !- Handle
  Compliance Insulation R0.02,            !- Name
  Smooth,                                 !- Roughness
  8.10768e-05,                            !- Thickness {m}
  0.0230187710627394,                     !- Conductivity {W/m-K}
  16.0184633739601,                       !- Density {kg/m3}
  1130.436;                               !- Specific Heat {J/kg-K}

OS:Construction,
  {728c252e-f632-4fa4-b071-20d77636387c}, !- Handle
  MetalFrameWallU055,                     !- Name
  ,                                       !- Surface Rendering Name
  {18a29fc2-37cc-4ecf-86e3-96d95fb5fb40}, !- Layer 1
  {3f3a1a4a-95aa-4910-82d0-fa6ed50cbe2b}, !- Layer 2
  {fed51a42-fd2b-4150-8a67-aa3b1e349a3e}, !- Layer 3
  {c8d7ad89-5993-435c-b4d9-41667cab5a0a}, !- Layer 4
  {c8d7ad89-5993-435c-b4d9-41667cab5a0a}, !- Layer 5
  {5721b0eb-1e8e-4d12-a3a2-a66fbaccc2a5}, !- Layer 6
  {e8ff09a3-81a9-422f-8a30-acef650e7426}; !- Layer 7

OS:Construction,
  {cca64089-c050-4125-a769-e087a80a53d0}, !- Handle
  MetalFrameWallInterior,                 !- Name
  ,                                       !- Surface Rendering Name
  {6d1b811e-2cb6-45db-a722-330ee1ec05a6}, !- Layer 1
  {2a42ca46-29c7-4aed-8173-0ecd0f43ec76}, !- Layer 2
  {6d1b811e-2cb6-45db-a722-330ee1ec05a6}; !- Layer 3

OS:Material,
  {2a42ca46-29c7-4aed-8173-0ecd0f43ec76}, !- Handle
  Air - Metal Wall Framing - 16 or 24 in. OC 1, !- Name
  Smooth,                                 !- Roughness
  0.1397,                                 !- Thickness {m}
  1.22016793979183,                       !- Conductivity {W/m-K}
  1.28147706991681,                       !- Density {kg/m3}
  1004.832;                               !- Specific Heat {J/kg-K}

OS:Construction,
  {3440fff0-df5c-4794-971c-7145ace11dd5}, !- Handle
  SteepNonresWoodFramingAndOtherRoofU028HiRefl, !- Name
  ,                                       !- Surface Rendering Name
  {14868974-c2fb-45bb-b8ce-7baf9b64b98a}, !- Layer 1
  {21170978-03bc-4e79-b8a1-69cb6f9cccce}; !- Layer 2

OS:Construction,
  {2f1a3977-6320-4573-997b-7c9fd772aa25}, !- Handle
  TypicalPlenumFloorInterior,             !- Name
  ,                                       !- Surface Rendering Name
  {6f38ddd3-cf77-4290-bd61-7cb8247f236f}; !- Layer 1

OS:WindowMaterial:SimpleGlazingSystem,
  {d99fa343-6afc-45a3-81df-22b624300a7d}, !- Handle
  Base_AllCZ_FixedWindowU34 Material,     !- Name
  1.93060953597858,                       !- U-Factor {W/m2-K}
  0.22,                                   !- Solar Heat Gain Coefficient
  0.42;                                   !- Visible Transmittance

OS:Construction,
  {c3c274b7-2e3b-4b78-bbee-f4faabd24dfc}, !- Handle
  Base_AllCZ_FixedWindowU34,              !- Name
  ,                                       !- Surface Rendering Name
  {d99fa343-6afc-45a3-81df-22b624300a7d}; !- Layer 1

OS:Curve:Biquadratic,
  {22110aa8-4f38-4781-84a0-5951db50b8c6}, !- Handle
  CoilClgDXQRatio_fTwbToadbSI,            !- Name
  0.86779,                                !- Coefficient1 Constant
  0.014245,                               !- Coefficient2 x
  0.000554,                               !- Coefficient3 x**2
  -0.007569,                              !- Coefficient4 y
  3.2e-05,                                !- Coefficient5 y**2
  -0.000191,                              !- Coefficient6 x*y
  13.89,                                  !- Minimum Value of x
  25,                                     !- Maximum Value of x
  23.89,                                  !- Minimum Value of y
  46.11,                                  !- Maximum Value of y
  0.77,                                   !- Minimum Curve Output
  1.29;                                   !- Maximum Curve Output

OS:Curve:Cubic,
  {b3d2dc15-0963-4693-869c-eb51a9d0edca}, !- Handle
  FanVSDPerfSpResetPwrRatio_fCFMRatio,    !- Name
  0.027828,                               !- Coefficient1 Constant
  0.026583,                               !- Coefficient2 x
  -0.087069,                              !- Coefficient3 x**2
  1.03092,                                !- Coefficient4 x**3
  0.42,                                   !- Minimum Value of x
  1,                                      !- Maximum Value of x
  0.1,                                    !- Minimum Curve Output
  1;                                      !- Maximum Curve Output

OS:Curve:Cubic,
  {9f95b599-c3d1-4d51-b8df-11508568a7d7}, !- Handle
  CoilClgDXDblQRatio_fCFMRatio,           !- Name
  0.472786,                               !- Coefficient1 Constant
  1.24334,                                !- Coefficient2 x
  -1.03871,                               !- Coefficient3 x**2
  0.322578,                               !- Coefficient4 x**3
  0,                                      !- Minimum Value of x
  100,                                    !- Maximum Value of x
  0.47;                                   !- Minimum Curve Output

OS:Curve:Cubic,
  {d01d865a-18b1-43d2-8f99-cada15b899f0}, !- Handle
  CoilClgDXSEEREIRRatio_fQFrac,           !- Name
  1,                                      !- Coefficient1 Constant
  0,                                      !- Coefficient2 x
  0,                                      !- Coefficient3 x**2
  0,                                      !- Coefficient4 x**3
  0.7,                                    !- Minimum Value of x
  1,                                      !- Maximum Value of x
  1,                                      !- Minimum Curve Output
  1;                                      !- Maximum Curve Output

OS:Curve:Cubic,
  {a78dab61-b3ae-4f74-9c30-f5f157959da8}, !- Handle
  CoilClgDXDblEIRRatio_fCFMRatio,         !- Name
  1.00795,                                !- Coefficient1 Constant
  0.345441,                               !- Coefficient2 x
  -0.692289,                              !- Coefficient3 x**2
  0.338899,                               !- Coefficient4 x**3
  0,                                      !- Minimum Value of x
  100;                                    !- Maximum Value of x

OS:Curve:Quadratic,
  {b15e8378-1d39-4f99-bc15-25a2f3536199}, !- Handle
  CoilClgDXSnglQRatio_fCFMRatio,          !- Name
  0.8,                                    !- Coefficient1 Constant
  0.2,                                    !- Coefficient2 x
  0,                                      !- Coefficient3 x**2
  0,                                      !- Minimum Value of x
  100,                                    !- Maximum Value of x
  0.8;                                    !- Minimum Curve Output

OS:Curve:Quadratic,
  {3641941f-148e-4ac0-9485-861e4bc68205}, !- Handle
  CoilClgDXSnglEIRRatio_fCFMRatio,        !- Name
  1.156,                                  !- Coefficient1 Constant
  -0.1816,                                !- Coefficient2 x
  0.0256,                                 !- Coefficient3 x**2
  0,                                      !- Minimum Value of x
  100;                                    !- Maximum Value of x

OS:Curve:Quadratic,
  {dd33abeb-4abb-4f63-879a-a0d64be11598}, !- Handle
  CoilHtgFurnFIRRatio_fQRatio,            !- Name
  0.01861,                                !- Coefficient1 Constant
  1.09421,                                !- Coefficient2 x
  -0.112819,                              !- Coefficient3 x**2
  0.7,                                    !- Minimum Value of x
  1,                                      !- Maximum Value of x
  0.73,                                   !- Minimum Curve Output