
OS:Version,
  {680c6e35-a22f-496a-8118-03c0e8f4ee5e}, !- Handle
  3.10.0;                                 !- Version Identifier

OS:SimulationControl,
  {a8791120-8bd0-4d60-a09a-e4a659b31253}, !- Handle
  ,                                       !- Do Zone Sizing Calculation
  ,                                       !- Do System Sizing Calculation
  ,                                       !- Do Plant Sizing Calculation
  Yes,                                    !- Run Simulation for Sizing Periods
  Yes,                                    !- Run Simulation for Weather File Run Periods
  ,                                       !- Loads Convergence Tolerance Value {W}
  ,                                       !- Temperature Convergence Tolerance Value {deltaC}
  FullExterior,                           !- Solar Distribution
  50;                                     !- Maximum Number of Warmup Days

OS:YearDescription,
  {61173017-381a-4fd5-be98-3718d9792595}, !- Handle
  2009,                                   !- Calendar Year
  ,                                       !- Day of Week for Start Day
  ;                                       !- Is Leap Year

OS:RunPeriod,
  {a255b61d-bbb2-47c1-ac60-65417809df08}, !- Handle
  CA_Title24_2025_LOS-ANGELES-USC,        !- Name
  1,                                      !- Begin Month
  1,                                      !- Begin Day of Month
  12,                                     !- End Month
  31,                                     !- End Day of Month
  No,                                     !- Use Weather File Holidays and Special Days
  No,                                     !- Use Weather File Daylight Saving Period
  Yes,                                    !- Apply Weekend Holiday Rule
  ,                                       !- Use Weather File Rain Indicators
  ,                                       !- Use Weather File Snow Indicators
  ;                                       !- Number of Times Runperiod to be Repeated

OS:Site,
  {bd40c91a-bf1b-4a4d-b676-cf8c9c82ae43}, !- Handle
  LOS ANGELES USC,                        !- Name
  38.69,                                  !- Latitude {deg}
  -121.6,                                 !- Longitude {deg}
  -8,                                     !- Time Zone {hr}
  54.5592,                                !- Elevation {m}
  Suburbs;                                !- Terrain

OS:SizingPeriod:DesignDay,
  {0e86c755-41fa-445e-9e03-6b47d1110c2a}, !- Handle
  LOS ANGELES USC Ann Htg 99.6% Condns DB, !- Name
  6.2,                                    !- Maximum Dry-Bulb Temperature {C}
  0,                                      !- Daily Dry-Bulb Temperature Range {deltaC}
  100663,                                 !- Barometric Pressure {Pa}
  0.6,                                    !- Wind Speed {m/s}
  20,                                     !- Wind Direction {deg}
  0,                                      !- Sky Clearness
  No,                                     !- Rain Indicator
  No,                                     !- Snow Indicator
  21,                                     !- Day of Month
  12,                                     !- Month
  WinterDesignDay,                        !- Day Type
  No,                                     !- Daylight Saving Time Indicator
  Wetbulb,                                !- Humidity Condition Type
  ,                                       !- Humidity Condition Day Schedule Name
  6.2,                                    !- Wetbulb or DewPoint at Maximum Dry-Bulb {C}
  ,                                       !- Humidity Ratio at Maximum Dry-Bulb {kgWater/kgDryAir}
  ,                                       !- Enthalpy at Maximum Dry-Bulb {J/kg}
  DefaultMultipliers,                     !- Dry-Bulb Temperature Range Modifier Type
  ,                                       !- Dry-Bulb Temperature Range Modifier Day Schedule Name
  ASHRAEClearSky;                         !- Solar Model Indicator

OS:SizingPeriod:DesignDay,
  {bd5f0d17-fc46-4445-a557-cdc0aad5e547}, !- Handle
  LOS ANGELES USC  June .4% Condns DB=>MCWB, !- Name
  32.3,                                   !- Maximum Dry-Bulb Temperature {C}
  8.2,                                    !- Daily Dry-Bulb Temperature Range {deltaC}
  100663,                                 !- Barometric Pressure {Pa}
  0.6,                                    !- Wind Speed {m/s}
  260,                                    !- Wind Direction {deg}
  ,                                       !- Sky Clearness
  No,                                     !- Rain Indicator
  No,                                     !- Snow Indicator
  21,                                     !- Day of Month
  6,                                      !- Month
  SummerDesignDay,                        !- Day Type
  No,                                     !- Daylight Saving Time Indicator
  Wetbulb,                                !- Humidity Condition Type
  ,                                       !- Humidity Condition Day Schedule Name
  20.7,                                   !- Wetbulb or DewPoint at Maximum Dry-Bulb {C}
  ,                                       !- Humidity Ratio at Maximum Dry-Bulb {kgWater/kgDryAir}
  ,                                       !- Enthalpy at Maximum Dry-Bulb {J/kg}
  DefaultMultipliers,                     !- Dry-Bulb Temperature Range Modifier Type
  ,                                       !- Dry-Bulb Temperature Range Modifier Day Schedule Name
  ASHRAETau,                              !- Solar Model Indicator
  ,                                       !- Beam Solar Day Schedule Name
  ,                                       !- Diffuse Solar Day Schedule Name
  0.405,                                  !- ASHRAE Clear Sky Optical Depth for Beam Irradiance {dimensionless}
  2.324;                                  !- ASHRAE Clear Sky Optical Depth for Diffuse Irradiance {dimensionless}

OS:SizingPeriod:DesignDay,
  {32b45164-933c-4333-825a-66acecb9041b}, !- Handle
  LOS ANGELES USC  July .4% Condns DB=>MCWB, !- Name
  33.8,                                   !- Maximum Dry-Bulb Temperature {C}
  9.2,                                    !- Daily Dry-Bulb Temperature Range {deltaC}
  100663,                                 !- Barometric Pressure {Pa}
  0.6,                                    !- Wind Speed {m/s}
  260,                                    !- Wind Direction {deg}
  ,                                       !- Sky Clearness
  No,                                     !- Rain Indicator
  No,                                     !- Snow Indicator
  21,                                     !- Day of Month
  7,                                      !- Month
  SummerDesignDay,                        !- Day Type
  No,                                     !- Daylight Saving Time Indicator
  Wetbulb,                                !- Humidity Condition Type
  ,                                       !- Humidity Condition Day Schedule Name
  22.1,                                   !- Wetbulb or DewPoint at Maximum Dry-Bulb {C}
  ,                                       !- Humidity Ratio at Maximum Dry-Bulb {kgWater/kgDryAir}
  ,                                       !- Enthalpy at Maximum Dry-Bulb {J/kg}
  DefaultMultipliers,                     !- Dry-Bulb Temperature Range Modifier Type
  ,                                       !- Dry-Bulb Temperature Range Modifier Day Schedule Name
  ASHRAETau,                              !- Solar Model Indicator
  ,                                       !- Beam Solar Day Schedule Name
  ,                                       !- Diffuse Solar Day Schedule Name
  0.402,                                  !- ASHRAE Clear Sky Optical Depth for Beam Irradiance {dimensionless}
  2.401;                                  !- ASHRAE Clear Sky Optical Depth for Diffuse Irradiance {dimensionless}

OS:SizingPeriod:DesignDay,
  {b8a8e345-9703-41fc-b276-c7fab07a0dc9}, !- Handle
  LOS ANGELES USC  August .4% Condns DB=>MCWB, !- Name
  33.7,                                   !- Maximum Dry-Bulb Temperature {C}
  9.6,                                    !- Daily Dry-Bulb Temperature Range {deltaC}
  100663,                                 !- Barometric Pressure {Pa}
  0.6,                                    !- Wind Speed {m/s}
  260,                                    !- Wind Direction {deg}
  ,                                       !- Sky Clearness
  No,                                     !- Rain Indicator
  No,                                     !- Snow Indicator
  21,                                     !- Day of Month
  8,                                      !- Month
  SummerDesignDay,                        !- Day Type
  No,                                     !- Daylight Saving Time Indicator
  Wetbulb,                                !- Humidity Condition Type
  ,                                       !- Humidity Condition Day Schedule Name
  21.2,                                   !- Wetbulb or DewPoint at Maximum Dry-Bulb {C}
  ,                                       !- Humidity Ratio at Maximum Dry-Bulb {kgWater/kgDryAir}
  ,                                       !- Enthalpy at Maximum Dry-Bulb {J/kg}
  DefaultMultipliers,                     !- Dry-Bulb Temperature Range Modifier Type
  ,                                       !- Dry-Bulb Temperature Range Modifier Day Schedule Name
  ASHRAETau,                              !- Solar Model Indicator
  ,                                       !- Beam Solar Day Schedule Name
  ,                                       !- Diffuse Solar Day Schedule Name
  0.383,                                  !- ASHRAE Clear Sky Optical Depth for Beam Irradiance {dimensionless}
  2.433;                                  !- ASHRAE Clear Sky Optical Depth for Diffuse Irradiance {dimensionless}

OS:SizingPeriod:DesignDay,
  {42a7ca27-7914-41e7-8864-c542ec34d0c6}, !- Handle
  LOS ANGELES USC  September .4% Condns DB=>MCWB, !- Name
  36.3,                                   !- Maximum Dry-Bulb Temperature {C}
  9.8,                                    !- Daily Dry-Bulb Temperature Range {deltaC}
  100663,                                 !- Barometric Pressure {Pa}
  0.6,                                    !- Wind Speed {m/s}
  260,                                    !- Wind Direction {deg}
  ,                                       !- Sky Clearness
  No,                                     !- Rain Indicator
  No,                                     !- Snow Indicator
  21,                                     !- Day of Month
  9,                                      !- Month
  SummerDesignDay,                        !- Day Type
  No,                                     !- Daylight Saving Time Indicator
  Wetbulb,                                !- Humidity Condition Type
  ,                                       !- Humidity Condition Day Schedule Name
  20.1,                                   !- Wetbulb or DewPoint at Maximum Dry-Bulb {C}
  ,                                       !- Humidity Ratio at Maximum Dry-Bulb {kgWater/kgDryAir}
  ,                                       !- Enthalpy at Maximum Dry-Bulb {J/kg}
  DefaultMultipliers,                     !- Dry-Bulb Temperature Range Modifier Type
  ,                                       !- Dry-Bulb Temperature Range Modifier Day Schedule Name
  ASHRAETau,                              !- Solar Model Indicator
  ,                                       !- Beam Solar Day Schedule Name
  ,                                       !- Diffuse Solar Day Schedule Name
  0.369,                                  !- ASHRAE Clear Sky Optical Depth for Beam Irradiance {dimensionless}
  2.465;                                  !- ASHRAE Clear Sky Optical Depth for Diffuse Irradiance {dimensionless}

OS:SizingPeriod:DesignDay,
  {fcbef40c-11f0-4305-909c-a8bce6edbfa0}, !- Handle
  LOS ANGELES USC  October .4% Condns DB=>MCWB, !- Name
  35.2,                                   !- Maximum Dry-Bulb Temperature {C}
  9.9,                                    !- Daily Dry-Bulb Temperature Range {deltaC}
  100663,                                 !- Barometric Pressure {Pa}
  0.6,                                    !- Wind Speed {m/s}
  260,                                    !- Wind Direction {deg}
  ,                                       !- Sky Clearness
  No,                                     !- Rain Indicator
  No,                                     !- Snow Indicator
  21,                                     !- Day of Month
  10,                                     !- Month
  SummerDesignDay,                        !- Day Type
  No,                                     !- Daylight Saving Time Indicator
  Wetbulb,                                !- Humidity Condition Type
  ,                                       !- Humidity Condition Day Schedule Name
  16.8,                                   !- Wetbulb or DewPoint at Maximum Dry-Bulb {C}
  ,                                       !- Humidity Ratio at Maximum Dry-Bulb {kgWater/kgDryAir}
  ,                                       !- Enthalpy at Maximum Dry-Bulb {J/kg}
  DefaultMultipliers,                     !- Dry-Bulb Temperature Range Modifier Type
  ,                                       !- Dry-Bulb Temperature Range Modifier Day Schedule Name
  ASHRAETau,                              !- Solar Model Indicator
  ,                                       !- Beam Solar Day Schedule Name
  ,                                       !- Diffuse Solar Day Schedule Name
  0.38,                                   !- ASHRAE Clear Sky Optical Depth for Beam Irradiance {dimensionless}
  2.397;                                  !- ASHRAE Clear Sky Optical Depth for Diffuse Irradiance {dimensionless}

OS:SizingPeriod:DesignDay,
  {c4b41dbc-4001-4211-bb50-7b67cc4bdfc8}, !- Handle
  LOS ANGELES USC  November .4% Condns DB=>MCWB, !- Name
  31.9,                                   !- Maximum Dry-Bulb Temperature {C}
  10.4,                                   !- Daily Dry-Bulb Temperature Range {deltaC}
  100663,                                 !- Barometric Pressure {Pa}
  0.6,                                    !- Wind Speed {m/s}
  260,                                    !- Wind Direction {deg}
  ,                                       !- Sky Clearness
  No,                                     !- Rain Indicator
  No,                                     !- Snow Indicator
  21,                                     !- Day of Month
  11,                                     !- Month
  SummerDesignDay,                        !- Day Type
  No,                                     !- Daylight Saving Time Indicator
  Wetbulb,                                !- Humidity Condition Type
  ,                                       !- Humidity Condition Day Schedule Name
  15.4,                                   !- Wetbulb or DewPoint at Maximum Dry-Bulb {C}
  ,                                       !- Humidity Ratio at Maximum Dry-Bulb {kgWater/kgDryAir}
  ,                                       !- Enthalpy at Maximum Dry-Bulb {J/kg}
  DefaultMultipliers,                     !- Dry-Bulb Temperature Range Modifier Type
  ,                                       !- Dry-Bulb Temperature Range Modifier Day Schedule Name
  ASHRAETau,                              !- Solar Model Indicator
  ,                                       !- Beam Solar Day Schedule Name
  ,                                       !- Diffuse Solar Day Schedule Name
  0.325,                                  !- ASHRAE Clear Sky Optical Depth for Beam Irradiance {dimensionless}
  2.558;                                  !- ASHRAE Clear Sky Optical Depth for Diffuse Irradiance {dimensionless}

OS:WeatherFile,
  {09ed578c-067d-49f8-bd4d-e806f5dab7a0}, !- Handle
  Usc Downtown La Campus,                 !- City
  CA,                                     !- State Province Region
  USA,                                    !- Country
  USC-DOWNTOWN-LA-CAMPUS,                 !- Data Source
  722874,                                 !- WMO Number
  34.024,                                 !- Latitude {deg}
  -118.291,                               !- Longitude {deg}
  -8,                                     !- Time Zone {hr}
  54.6,                                   !- Elevation {m}
  C:/Users/MichaelSawford/Documents/CBECC 2025 Data/EPW25/CA_Title24_2025_LOS-ANGELES-USC.epw, !- Url
  FDD82080,                               !- Checksum
  ,                                       !- Start Date Actual Year
  Sunday;                                 !- Start Day of Week

OS:Sizing:Parameters,
  {514c2c8d-14f0-4634-a260-6c94aee3314b}, !- Handle
  1,                                      !- Heating Sizing Factor
  1;                                      !- Cooling Sizing Factor

OS:Material,
  {95966978-5e35-48a9-98db-efe4729c7c08}, !- Handle
  Plywood - 5/8 in.,                      !- Name
  Smooth,                                 !- Roughness
  0.016002,                               !- Thickness {m}
  0.115440002246971,                      !- Conductivity {W/m-K}
  480.553901218804,                       !- Density {kg/m3}
  1884.06;                                !- Specific Heat {J/kg-K}

OS:Material,
  {1fd01651-f3a7-4c89-b1cd-121c048ad038}, !- Handle
  Carpet - 3/4 in.,                       !- Name
  Smooth,                                 !- Roughness
  0.01905,                                !- Thickness {m}
  0.0455183217255675,                     !- Conductivity {W/m-K}
  288.332340731282,                       !- Density {kg/m3}
  1381.644,                               !- Specific Heat {J/kg-K}
  0.9,                                    !- Thermal Absorptance
  0.7,                                    !- Solar Absorptance
  0.8;                                    !- Visible Absorptance

OS:Material,
  {5c27b20a-4dbb-4696-807e-1ac47df7ed04}, !- Handle
  Stucco - 7/8 in.,                       !- Name
  MediumRough,                            !- Roughness
  0.022352,                               !- Thickness {m}
  0.700947539880412,                      !- Conductivity {W/m-K}
  1855.09824333832,                       !- Density {kg/m3}
  837.36,                                 !- Specific Heat {J/kg-K}
  0.9,                                    !- Thermal Absorptance
  0.7,                                    !- Solar Absorptance
  0.8;                                    !- Visible Absorptance

OS:Material,
  {3e2f534d-896a-49ac-908d-5cb06258ceef}, !- Handle
  Compliance Insulation R0.02,            !- Name
  Smooth,                                 !- Roughness
  8.10768e-05,                            !- Thickness {m}
  0.0230187710627394,                     !- Conductivity {W/m-K}
  16.0184633739601,                       !- Density {kg/m3}
  1130.436;                               !- Specific Heat {J/kg-K}

OS:Material,
  {eb52feb2-6946-4085-bc40-ceb4901c83ee}, !- Handle
  Gypsum Board - 1/2 in.,                 !- Name
  Smooth,                                 !- Roughness
  0.0127,                                 !- Thickness {m}
  0.158656446866265,                      !- Conductivity {W/m-K}
  640.738534958406,                       !- Density {kg/m3}
  1130.436,                               !- Specific Heat {J/kg-K}
  0.9,                                    !- Thermal Absorptance
  0.7,                                    !- Solar Absorptance
  0.8;                                    !- Visible Absorptance

OS:Material,
  {e0133e02-2329-42ac-8b88-1327cd7d8403}, !- Handle
  Compliance Insulation R14.60,           !- Name
  Smooth,                                 !- Roughness
  0.059186064,                            !- Thickness {m}
  0.0230187710627394,                     !- Conductivity {W/m-K}
  16.0184633739601,                       !- Density {kg/m3}
  1130.436;                               !- Specific Heat {J/kg-K}

OS:Material,
  {a9d097bf-d5d1-4af6-8e38-2c70a586a962}, !- Handle
  Compliance Insulation R1.41,            !- Name
  Smooth,                                 !- Roughness
  0.0057159144,                           !- Thickness {m}
  0.0230187710627394,                     !- Conductivity {W/m-K}
  16.0184633739601,                       !- Density {kg/m3}
  1130.436;                               !- Specific Heat {J/kg-K}

OS:Material,
  {9e8d301b-9126-47e4-bb9c-09513e1c130b}, !- Handle
  Air - Metal Wall Framing - 16 or 24 in. OC, !- Name
  Smooth,                                 !- Roughness
  0.1397,                                 !- Thickness {m}
  1.22016793979183,                       !- Conductivity {W/m-K}
  1.28147706991681,                       !- Density {kg/m3}
  1004.832;                               !- Specific Heat {J/kg-K}

OS:Material,
  {52089999-03ff-4314-a6e5-5043c9d10875}, !- Handle
  Gypsum Board - 5/8 in.,                 !- Name
  MediumRough,                            !- Roughness
  0.016002,                               !- Thickness {m}
  0.158656446866265,                      !- Conductivity {W/m-K}
  640.738534958406,                       !- Density {kg/m3}
  1130.436,                               !- Specific Heat {J/kg-K}
  0.9,                                    !- Thermal Absorptance
  0.7,                                    !- Solar Absorptance
  0.8;                                    !- Visible Absorptance

OS:Material,
  {2c9be764-627c-419b-a74d-2b4f18eb8004}, !- Handle
  Compliance Insulation R9.83,            !- Name
  MediumRough,                            !- Roughness
  0.03986911,                             !- Thickness {m}
  0.0230187710627394,                     !- Conductivity {W/m-K}
  16.0184633739601,                       !- Density {kg/m3}
  1130.436,                               !- Specific Heat {J/kg-K}
  0.9,                                    !- Thermal Absorptance
  0.7,                                    !- Solar Absorptance
  0.8;                                    !- Visible Absorptance

OS:Construction,
  {1e5c05c6-776b-4c8d-9dda-c765d69dceea}, !- Handle
  MetalFrameWallU055,                     !- Name
  ,                                       !- Surface Rendering Name
  {5c27b20a-4dbb-4696-807e-1ac47df7ed04}, !- Layer 1
  {e0133e02-2329-42ac-8b88-1327cd7d8403}, !- Layer 2
  {a9d097bf-d5d1-4af6-8e38-2c70a586a962}, !- Layer 3
  {3e2f534d-896a-49ac-908d-5cb06258ceef}, !- Layer 4
  {3e2f534d-896a-49ac-908d-5cb06258ceef}, !- Layer 5
  {9e8d301b-9126-47e4-bb9c-09513e1c130b}, !- Layer 6
  {eb52feb2-6946-4085-bc40-ceb4901c83ee}; !- Layer 7

OS:Construction,
  {746e14d7-2888-4c96-8802-fbcedf56db8c}, !- Handle
  MetalFrameWallInterior,                 !- Name
  ,                                       !- Surface Rendering Name
  {52089999-03ff-4314-a6e5-5043c9d10875}, !- Layer 1
  {d45dd449-293a-4960-b36f-71abf4d6e0a3}, !- Layer 2
  {52089999-03ff-4314-a6e5-5043c9d10875}; !- Layer 3

OS:Material,
  {d45dd449-293a-4960-b36f-71abf4d6e0a3}, !- Handle
  Air - Metal Wall Framing - 16 or 24 in. OC 1, !- Name
  Smooth,                                 !- Roughness
  0.1397,                                 !- Thickness {m}
  1.22016793979183,                       !- Conductivity {W/m-K}
  1.28147706991681,                       !- Density {kg/m3}
  1004.832;                               !- Specific Heat {J/kg-K}

OS:Construction,
  {85459428-3ad3-4d51-a17e-330a4ec78299}, !- Handle
  OtherFloorU071,                         !- Name
  ,                                       !- Surface Rendering Name
  {2c9be764-627c-419b-a74d-2b4f18eb8004}, !- Layer 1
  {95966978-5e35-48a9-98db-efe4729c7c08}, !- Layer 2
  {1fd01651-f3a7-4c89-b1cd-121c048ad038}; !- Layer 3

OS:WindowMaterial:SimpleGlazingSystem,
  {c6ded254-8a7c-414e-a65a-3cd554261e40}, !- Handle
  Nonres Fixed Window Material,           !- Name
  1.93060953597858,                       !- U-Factor {W/m2-K}
  0.22,                                   !- Solar Heat Gain Coefficient
  0.42;                                   !- Visible Transmittance

OS:Construction,
  {4d8b5e8e-0e4b-498c-8439-030df8ab2cb2}, !- Handle
  Nonres Fixed Window,                    !- Name
  ,                                       !- Surface Rendering Name
  {c6ded254-8a7c-414e-a65a-3cd554261e40}; !- Layer 1

OS:Curve:Biquadratic,
  {72610af3-bc34-4b8b-a65b-715b7bf842ca}, !- Handle
  CoilClgDXQRatio_fTwbToadbSI,            !- Name
  0.86779,                                !- Coefficient1 Constant
  0.014245,                               !- Coefficient2 x
  0.000554,                               !- Coefficient3 x**2
  -0.007569,                              !- Coefficient4 y
  3.2e-05,                                !- Coefficient5 y**2
  -0.000191,                              !- Coefficient6 x*y
  13.89,                                  !- Minimum Value of x
  25,                                     !- Maximum Value of x
  23.89,                                  !- Minimum Value of y
  46.11,                                  !- Maximum Value of y
  0.77,                                   !- Minimum Curve Output
  1.29;                                   !- Maximum Curve Output

OS:Curve:Biquadratic,
  {22ae3809-930b-4433-a21c-22675bfbe1e4}, !- Handle
  CoilClgDXQRatio_fTwbToadbIP,            !- Name
  0.874962,                               !- Coefficient1 Constant
  -0.00114282,                            !- Coefficient2 x
  0.00017128,                             !- Coefficient3 x**2
  -0.00296015,                            !- Coefficient4 y
  1.021e-05,                              !- Coefficient5 y**2
  -5.926e-05,                             !- Coefficient6 x*y
  57,                                     !- Minimum Value of x
  77,                                     !- Maximum Value of x
  75,                                     !- Minimum Value of y
  115,                                    !- Maximum Value of y
  0.77,                                   !- Minimum Curve Output
  1.29;                                   !- Maximum Curve Output

OS:Curve:Biquadratic,
  {a44e8af9-aef1-4f18-a18f-bfea8b15b0f5}, !- Handle
  CoilClgDXEIRRatio_fTwbToadbSI,          !- Name
  0.116709,                               !- Coefficient1 Constant
  0.028458,                               !- Coefficient2 x
  -0.000411,                              !- Coefficient3 x**2
  0.021422,                               !- Coefficient4 y
  0.000162,                               !- Coefficient5 y**2
  -0.00068,                               !- Coefficient6 x*y
  13.89,                                  !- Minimum Value of x
  25,                                     !- Maximum Value of x
  23.89,                                  !- Minimum Value of y
  46.11,                                  !- Maximum Value of y
  0.77,                                   !- Minimum Curve Output
  1.33;                                   !- Maximum Curve Output

OS:Curve:Biquadratic,
  {bd918678-fd91-49e0-afe4-4a35965235d3}, !- Handle
  CoilClgDXEIRRatio_fTwbToadbIP,          !- Name
  -1.06393,                               !- Coefficient1 Constant
  0.0306584,                              !- Coefficient2 x
  -0.0001269,                             !- Coefficient3 x**2
  0.0154213,                              !- Coefficient4 y
  4.97e-05,                               !- Coefficient5 y**2
  -0.0002096,                             !- Coefficient6 x*y
  57,                                     !- Minimum Value of x
  77,                                     !- Maximum Value of x
  75,                                     !- Minimum Value of y
  115,                                    !- Maximum Value of y
  0.77,                                   !- Minimum Curve Output
  1.33;                                   !- Maximum Curve Output

OS:Curve:Biquadratic,
  {36ba34e5-aac2-4853-a81f-ec9eeec34c10}, !- Handle
  BlrHWCondBlrFIRRatio_fQRatioTewtSI,     !- Name
  1.19381,                                !- Coefficient1 Constant
  -0.110825,                              !- Coefficient2 x
  0.039514,                               !- Coefficient3 x**2
  -0.006371,                              !- Coefficient4 y
  3.8e-05,                                !- Coefficient5 y**2
  0.00083,                                !- Coefficient6 x*y
  0.1,                                    !- Minimum Value of x
  1,                                      !- Maximum Value of x
  15.56,                                  !- Minimum Value of y
  71.1,                                   !- Maximum Value of y
  0.93,                                   !- Minimum Curve Output
  1.05;                                   !- Maximum Curve Output

OS:Curve:Cubic,
  {1f8887ea-efca-478c-ae0e-2776b3539f96}, !- Handle
  FanVSDGoodSpResetPwrRatio_fCFMRatio,    !- Name
  0.04076,                                !- Coefficient1 Constant
  0.088045,                               !- Coefficient2 x
  -0.072926,                              !- Coefficient3 x**2
  0.94374,                                !- Coefficient4 x**3
  0.342,                                  !- Minimum Value of x
  1,                                      !- Maximum Value of x
  0.1,                                    !- Minimum Curve Output
  1;                                      !- Maximum Curve Output

OS:Curve:Cubic,