
OS:Version,
  {f2e91d96-e2bf-4c15-b8ef-565cba5d75ba}, !- Handle
  3.10.0;                                 !- Version Identifier

OS:SimulationControl,
  {93730f2c-da48-47d9-9fb1-267d5c3b14e5}, !- Handle
  ,                                       !- Do Zone Sizing Calculation
  ,                                       !- Do System Sizing Calculation
  ,                                       !- Do Plant Sizing Calculation
  Yes,                                    !- Run Simulation for Sizing Periods
  Yes,                                    !- Run Simulation for Weather File Run Periods
  ,                                       !- Loads Convergence Tolerance Value {W}
  ,                                       !- Temperature Convergence Tolerance Value {deltaC}
  FullExterior,                           !- Solar Distribution
  50;                                     !- Maximum Number of Warmup Days

OS:YearDescription,
  {9db17001-6296-4938-9ab1-f17f8f60d4b8}, !- Handle
  2009,                                   !- Calendar Year
  ,                                       !- Day of Week for Start Day
  ;                                       !- Is Leap Year

OS:RunPeriod,
  {f1680600-7665-4185-881b-3682aacb6330}, !- Handle
  CA_Title24_2025_LOS-ANGELES-USC,        !- Name
  1,                                      !- Begin Month
  1,                                      !- Begin Day of Month
  12,                                     !- End Month
  31,                                     !- End Day of Month
  No,                                     !- Use Weather File Holidays and Special Days
  No,                                     !- Use Weather File Daylight Saving Period
  Yes,                                    !- Apply Weekend Holiday Rule
  ,                                       !- Use Weather File Rain Indicators
  ,                                       !- Use Weather File Snow Indicators
  ;                                       !- Number of Times Runperiod to be Repeated

OS:Site,
  {f4141395-66a6-49de-a29d-fef7b9eaf3ba}, !- Handle
  LOS ANGELES USC,                        !- Name
  38.69,                                  !- Latitude {deg}
  -121.6,                                 !- Longitude {deg}
  -8,                                     !- Time Zone {hr}
  54.5592,                                !- Elevation {m}
  Suburbs;                                !- Terrain

OS:SizingPeriod:DesignDay,
  {4d363160-340a-4254-aab4-d79ad5827606}, !- Handle
  LOS ANGELES USC Ann Htg 99.6% Condns DB, !- Name
  6.2,                                    !- Maximum Dry-Bulb Temperature {C}
  0,                                      !- Daily Dry-Bulb Temperature Range {deltaC}
  100663,                                 !- Barometric Pressure {Pa}
  0.6,                                    !- Wind Speed {m/s}
  20,                                     !- Wind Direction {deg}
  0,                                      !- Sky Clearness
  No,                                     !- Rain Indicator
  No,                                     !- Snow Indicator
  21,                                     !- Day of Month
  12,                                     !- Month
  WinterDesignDay,                        !- Day Type
  No,                                     !- Daylight Saving Time Indicator
  Wetbulb,                                !- Humidity Condition Type
  ,                                       !- Humidity Condition Day Schedule Name
  6.2,                                    !- Wetbulb or DewPoint at Maximum Dry-Bulb {C}
  ,                                       !- Humidity Ratio at Maximum Dry-Bulb {kgWater/kgDryAir}
  ,                                       !- Enthalpy at Maximum Dry-Bulb {J/kg}
  DefaultMultipliers,                     !- Dry-Bulb Temperature Range Modifier Type
  ,                                       !- Dry-Bulb Temperature Range Modifier Day Schedule Name
  ASHRAEClearSky;                         !- Solar Model Indicator

OS:SizingPeriod:DesignDay,
  {fbdd4f5c-36aa-4e5a-865c-804f3aa3629d}, !- Handle
  LOS ANGELES USC  June .4% Condns DB=>MCWB, !- Name
  32.3,                                   !- Maximum Dry-Bulb Temperature {C}
  8.2,                                    !- Daily Dry-Bulb Temperature Range {deltaC}
  100663,                                 !- Barometric Pressure {Pa}
  0.6,                                    !- Wind Speed {m/s}
  260,                                    !- Wind Direction {deg}
  ,                                       !- Sky Clearness
  No,                                     !- Rain Indicator
  No,                                     !- Snow Indicator
  21,                                     !- Day of Month
  6,                                      !- Month
  SummerDesignDay,                        !- Day Type
  No,                                     !- Daylight Saving Time Indicator
  Wetbulb,                                !- Humidity Condition Type
  ,                                       !- Humidity Condition Day Schedule Name
  20.7,                                   !- Wetbulb or DewPoint at Maximum Dry-Bulb {C}
  ,                                       !- Humidity Ratio at Maximum Dry-Bulb {kgWater/kgDryAir}
  ,                                       !- Enthalpy at Maximum Dry-Bulb {J/kg}
  DefaultMultipliers,                     !- Dry-Bulb Temperature Range Modifier Type
  ,                                       !- Dry-Bulb Temperature Range Modifier Day Schedule Name
  ASHRAETau,                              !- Solar Model Indicator
  ,                                       !- Beam Solar Day Schedule Name
  ,                                       !- Diffuse Solar Day Schedule Name
  0.405,                                  !- ASHRAE Clear Sky Optical Depth for Beam Irradiance {dimensionless}
  2.324;                                  !- ASHRAE Clear Sky Optical Depth for Diffuse Irradiance {dimensionless}

OS:SizingPeriod:DesignDay,
  {80919d10-72c3-414c-b06e-57783e60fbd4}, !- Handle
  LOS ANGELES USC  July .4% Condns DB=>MCWB, !- Name
  33.8,                                   !- Maximum Dry-Bulb Temperature {C}
  9.2,                                    !- Daily Dry-Bulb Temperature Range {deltaC}
  100663,                                 !- Barometric Pressure {Pa}
  0.6,                                    !- Wind Speed {m/s}
  260,                                    !- Wind Direction {deg}
  ,                                       !- Sky Clearness
  No,                                     !- Rain Indicator
  No,                                     !- Snow Indicator
  21,                                     !- Day of Month
  7,                                      !- Month
  SummerDesignDay,                        !- Day Type
  No,                                     !- Daylight Saving Time Indicator
  Wetbulb,                                !- Humidity Condition Type
  ,                                       !- Humidity Condition Day Schedule Name
  22.1,                                   !- Wetbulb or DewPoint at Maximum Dry-Bulb {C}
  ,                                       !- Humidity Ratio at Maximum Dry-Bulb {kgWater/kgDryAir}
  ,                                       !- Enthalpy at Maximum Dry-Bulb {J/kg}
  DefaultMultipliers,                     !- Dry-Bulb Temperature Range Modifier Type
  ,                                       !- Dry-Bulb Temperature Range Modifier Day Schedule Name
  ASHRAETau,                              !- Solar Model Indicator
  ,                                       !- Beam Solar Day Schedule Name
  ,                                       !- Diffuse Solar Day Schedule Name
  0.402,                                  !- ASHRAE Clear Sky Optical Depth for Beam Irradiance {dimensionless}
  2.401;                                  !- ASHRAE Clear Sky Optical Depth for Diffuse Irradiance {dimensionless}

OS:SizingPeriod:DesignDay,
  {49941dc9-04be-4a78-bae4-1a875c48b12a}, !- Handle
  LOS ANGELES USC  August .4% Condns DB=>MCWB, !- Name
  33.7,                                   !- Maximum Dry-Bulb Temperature {C}
  9.6,                                    !- Daily Dry-Bulb Temperature Range {deltaC}
  100663,                                 !- Barometric Pressure {Pa}
  0.6,                                    !- Wind Speed {m/s}
  260,                                    !- Wind Direction {deg}
  ,                                       !- Sky Clearness
  No,                                     !- Rain Indicator
  No,                                     !- Snow Indicator
  21,                                     !- Day of Month
  8,                                      !- Month
  SummerDesignDay,                        !- Day Type
  No,                                     !- Daylight Saving Time Indicator
  Wetbulb,                                !- Humidity Condition Type
  ,                                       !- Humidity Condition Day Schedule Name
  21.2,                                   !- Wetbulb or DewPoint at Maximum Dry-Bulb {C}
  ,                                       !- Humidity Ratio at Maximum Dry-Bulb {kgWater/kgDryAir}
  ,                                       !- Enthalpy at Maximum Dry-Bulb {J/kg}
  DefaultMultipliers,                     !- Dry-Bulb Temperature Range Modifier Type
  ,                                       !- Dry-Bulb Temperature Range Modifier Day Schedule Name
  ASHRAETau,                              !- Solar Model Indicator
  ,                                       !- Beam Solar Day Schedule Name
  ,                                       !- Diffuse Solar Day Schedule Name
  0.383,                                  !- ASHRAE Clear Sky Optical Depth for Beam Irradiance {dimensionless}
  2.433;                                  !- ASHRAE Clear Sky Optical Depth for Diffuse Irradiance {dimensionless}

OS:SizingPeriod:DesignDay,
  {57e10b1e-b40e-45d5-a166-862c2ff2fdcb}, !- Handle
  LOS ANGELES USC  September .4% Condns DB=>MCWB, !- Name
  36.3,                                   !- Maximum Dry-Bulb Temperature {C}
  9.8,                                    !- Daily Dry-Bulb Temperature Range {deltaC}
  100663,                                 !- Barometric Pressure {Pa}
  0.6,                                    !- Wind Speed {m/s}
  260,                                    !- Wind Direction {deg}
  ,                                       !- Sky Clearness
  No,                                     !- Rain Indicator
  No,                                     !- Snow Indicator
  21,                                     !- Day of Month
  9,                                      !- Month
  SummerDesignDay,                        !- Day Type
  No,                                     !- Daylight Saving Time Indicator
  Wetbulb,                                !- Humidity Condition Type
  ,                                       !- Humidity Condition Day Schedule Name
  20.1,                                   !- Wetbulb or DewPoint at Maximum Dry-Bulb {C}
  ,                                       !- Humidity Ratio at Maximum Dry-Bulb {kgWater/kgDryAir}
  ,                                       !- Enthalpy at Maximum Dry-Bulb {J/kg}
  DefaultMultipliers,                     !- Dry-Bulb Temperature Range Modifier Type
  ,                                       !- Dry-Bulb Temperature Range Modifier Day Schedule Name
  ASHRAETau,                              !- Solar Model Indicator
  ,                                       !- Beam Solar Day Schedule Name
  ,                                       !- Diffuse Solar Day Schedule Name
  0.369,                                  !- ASHRAE Clear Sky Optical Depth for Beam Irradiance {dimensionless}
  2.465;                                  !- ASHRAE Clear Sky Optical Depth for Diffuse Irradiance {dimensionless}

OS:SizingPeriod:DesignDay,
  {e97a48d5-7583-4713-bf35-2605fa609b2a}, !- Handle
  LOS ANGELES USC  October .4% Condns DB=>MCWB, !- Name
  35.2,                                   !- Maximum Dry-Bulb Temperature {C}
  9.9,                                    !- Daily Dry-Bulb Temperature Range {deltaC}
  100663,                                 !- Barometric Pressure {Pa}
  0.6,                                    !- Wind Speed {m/s}
  260,                                    !- Wind Direction {deg}
  ,                                       !- Sky Clearness
  No,                                     !- Rain Indicator
  No,                                     !- Snow Indicator
  21,                                     !- Day of Month
  10,                                     !- Month
  SummerDesignDay,                        !- Day Type
  No,                                     !- Daylight Saving Time Indicator
  Wetbulb,                                !- Humidity Condition Type
  ,                                       !- Humidity Condition Day Schedule Name
  16.8,                                   !- Wetbulb or DewPoint at Maximum Dry-Bulb {C}
  ,                                       !- Humidity Ratio at Maximum Dry-Bulb {kgWater/kgDryAir}
  ,                                       !- Enthalpy at Maximum Dry-Bulb {J/kg}
  DefaultMultipliers,                     !- Dry-Bulb Temperature Range Modifier Type
  ,                                       !- Dry-Bulb Temperature Range Modifier Day Schedule Name
  ASHRAETau,                              !- Solar Model Indicator
  ,                                       !- Beam Solar Day Schedule Name
  ,                                       !- Diffuse Solar Day Schedule Name
  0.38,                                   !- ASHRAE Clear Sky Optical Depth for Beam Irradiance {dimensionless}
  2.397;                                  !- ASHRAE Clear Sky Optical Depth for Diffuse Irradiance {dimensionless}

OS:SizingPeriod:DesignDay,
  {ef6c5f16-82c8-4393-bdb2-6ef09da98872}, !- Handle
  LOS ANGELES USC  November .4% Condns DB=>MCWB, !- Name
  31.9,                                   !- Maximum Dry-Bulb Temperature {C}
  10.4,                                   !- Daily Dry-Bulb Temperature Range {deltaC}
  100663,                                 !- Barometric Pressure {Pa}
  0.6,                                    !- Wind Speed {m/s}
  260,                                    !- Wind Direction {deg}
  ,                                       !- Sky Clearness
  No,                                     !- Rain Indicator
  No,                                     !- Snow Indicator
  21,                                     !- Day of Month
  11,                                     !- Month
  SummerDesignDay,                        !- Day Type
  No,                                     !- Daylight Saving Time Indicator
  Wetbulb,                                !- Humidity Condition Type
  ,                                       !- Humidity Condition Day Schedule Name
  15.4,                                   !- Wetbulb or DewPoint at Maximum Dry-Bulb {C}
  ,                                       !- Humidity Ratio at Maximum Dry-Bulb {kgWater/kgDryAir}
  ,                                       !- Enthalpy at Maximum Dry-Bulb {J/kg}
  DefaultMultipliers,                     !- Dry-Bulb Temperature Range Modifier Type
  ,                                       !- Dry-Bulb Temperature Range Modifier Day Schedule Name
  ASHRAETau,                              !- Solar Model Indicator
  ,                                       !- Beam Solar Day Schedule Name
  ,                                       !- Diffuse Solar Day Schedule Name
  0.325,                                  !- ASHRAE Clear Sky Optical Depth for Beam Irradiance {dimensionless}
  2.558;                                  !- ASHRAE Clear Sky Optical Depth for Diffuse Irradiance {dimensionless}

OS:WeatherFile,
  {c91b04f5-b93c-4027-8c81-9b0bbbe8080b}, !- Handle
  Usc Downtown La Campus,                 !- City
  CA,                                     !- State Province Region
  USA,                                    !- Country
  USC-DOWNTOWN-LA-CAMPUS,                 !- Data Source
  722874,                                 !- WMO Number
  34.024,                                 !- Latitude {deg}
  -118.291,                               !- Longitude {deg}
  -8,                                     !- Time Zone {hr}
  54.6,                                   !- Elevation {m}
  C:/Users/MichaelSawford/Documents/CBECC 2025 Data/EPW25/CA_Title24_2025_LOS-ANGELES-USC.epw, !- Url
  FDD82080,                               !- Checksum
  ,                                       !- Start Date Actual Year
  Sunday;                                 !- Start Day of Week

OS:Sizing:Parameters,
  {73b60ffe-131f-43a1-921d-f2c2b477a720}, !- Handle
  1,                                      !- Heating Sizing Factor
  1;                                      !- Cooling Sizing Factor

OS:Material,
  {8b147ae5-f543-4e7c-b28f-b412f73c07b4}, !- Handle
  Concrete - 140 lb/ft3 - 10 in.,         !- Name
  MediumRough,                            !- Roughness
  0.254,                                  !- Thickness {m}
  1.95140333633374,                       !- Conductivity {W/m-K}
  2239.06081041215,                       !- Density {kg/m3}
  921.096,                                !- Specific Heat {J/kg-K}
  0.9,                                    !- Thermal Absorptance
  0.7,                                    !- Solar Absorptance
  0.8;                                    !- Visible Absorptance

OS:Material,
  {0d81bb19-9a79-4275-aa2b-b733ca828516}, !- Handle
  Compliance Insulation R8.07,            !- Name
  Smooth,                                 !- Roughness
  0.032714438,                            !- Thickness {m}
  0.0230187710627394,                     !- Conductivity {W/m-K}
  16.0184633739601,                       !- Density {kg/m3}
  1130.436;                               !- Specific Heat {J/kg-K}

OS:Material,
  {10b25c5b-54e4-4574-908c-01c6b8963940}, !- Handle
  Compliance Insulation R0.50,            !- Name
  Smooth,                                 !- Roughness
  0.00202692,                             !- Thickness {m}
  0.0230187710627394,                     !- Conductivity {W/m-K}
  16.0184633739601,                       !- Density {kg/m3}
  1130.436;                               !- Specific Heat {J/kg-K}

OS:Material,
  {5a75b906-408e-496b-8cd3-b228175cc2ff}, !- Handle
  Plywood - 5/8 in.,                      !- Name
  Smooth,                                 !- Roughness
  0.016002,                               !- Thickness {m}
  0.115440002246971,                      !- Conductivity {W/m-K}
  480.553901218804,                       !- Density {kg/m3}
  1884.06;                                !- Specific Heat {J/kg-K}

OS:Material,
  {ab353d71-47a0-48b8-9e24-27ec67a3337b}, !- Handle
  Carpet - 3/4 in.,                       !- Name
  Smooth,                                 !- Roughness
  0.01905,                                !- Thickness {m}
  0.0455183217255675,                     !- Conductivity {W/m-K}
  288.332340731282,                       !- Density {kg/m3}
  1381.644,                               !- Specific Heat {J/kg-K}
  0.9,                                    !- Thermal Absorptance
  0.7,                                    !- Solar Absorptance
  0.8;                                    !- Visible Absorptance

OS:Material,
  {80aad02d-88ca-4c2d-a6f2-4e932f29b98f}, !- Handle
  Stucco - 7/8 in.,                       !- Name
  MediumRough,                            !- Roughness
  0.022352,                               !- Thickness {m}
  0.700947539880412,                      !- Conductivity {W/m-K}
  1855.09824333832,                       !- Density {kg/m3}
  837.36,                                 !- Specific Heat {J/kg-K}
  0.9,                                    !- Thermal Absorptance
  0.7,                                    !- Solar Absorptance
  0.8;                                    !- Visible Absorptance

OS:Material,
  {ed18c83d-68cb-4f1d-b21f-421d2faa5a47}, !- Handle
  Compliance Insulation R0.02,            !- Name
  Smooth,                                 !- Roughness
  8.10768e-05,                            !- Thickness {m}
  0.0230187710627394,                     !- Conductivity {W/m-K}
  16.0184633739601,                       !- Density {kg/m3}
  1130.436;                               !- Specific Heat {J/kg-K}

OS:Material,
  {180ec35a-be4c-441f-b7c9-5e1772172928}, !- Handle
  Gypsum Board - 1/2 in.,                 !- Name
  Smooth,                                 !- Roughness
  0.0127,                                 !- Thickness {m}
  0.158656446866265,                      !- Conductivity {W/m-K}
  640.738534958406,                       !- Density {kg/m3}
  1130.436,                               !- Specific Heat {J/kg-K}
  0.9,                                    !- Thermal Absorptance
  0.7,                                    !- Solar Absorptance
  0.8;                                    !- Visible Absorptance

OS:Material,
  {e650d789-5529-45ba-a66e-d198f7af14f2}, !- Handle
  Compliance Insulation R14.60,           !- Name
  Smooth,                                 !- Roughness
  0.059186064,                            !- Thickness {m}
  0.0230187710627394,                     !- Conductivity {W/m-K}
  16.0184633739601,                       !- Density {kg/m3}
  1130.436;                               !- Specific Heat {J/kg-K}

OS:Material,
  {f29548e6-6ec6-4750-ae67-95ca0e7fc9b7}, !- Handle
  Compliance Insulation R1.41,            !- Name
  Smooth,                                 !- Roughness
  0.0057159144,                           !- Thickness {m}
  0.0230187710627394,                     !- Conductivity {W/m-K}
  16.0184633739601,                       !- Density {kg/m3}
  1130.436;                               !- Specific Heat {J/kg-K}

OS:Material,
  {75487c5b-51ba-44b4-96d5-66fbbf8467a9}, !- Handle
  Air - Metal Wall Framing - 16 or 24 in. OC, !- Name
  Smooth,                                 !- Roughness
  0.1397,                                 !- Thickness {m}
  1.22016793979183,                       !- Conductivity {W/m-K}
  1.28147706991681,                       !- Density {kg/m3}
  1004.832;                               !- Specific Heat {J/kg-K}

OS:Material,
  {2c0039a1-6c55-4c2f-8583-ce1ecaba1c76}, !- Handle
  Gypsum Board - 5/8 in.,                 !- Name
  MediumRough,                            !- Roughness
  0.016002,                               !- Thickness {m}
  0.158656446866265,                      !- Conductivity {W/m-K}
  640.738534958406,                       !- Density {kg/m3}
  1130.436,                               !- Specific Heat {J/kg-K}
  0.9,                                    !- Thermal Absorptance
  0.7,                                    !- Solar Absorptance
  0.8;                                    !- Visible Absorptance

OS:Construction,
  {6b12f4b2-de85-4cd8-8bd3-e826837dd8d8}, !- Handle
  OtherFloorU071,                         !- Name
  ,                                       !- Surface Rendering Name
  {8b147ae5-f543-4e7c-b28f-b412f73c07b4}, !- Layer 1
  {0d81bb19-9a79-4275-aa2b-b733ca828516}, !- Layer 2
  {10b25c5b-54e4-4574-908c-01c6b8963940}, !- Layer 3
  {5a75b906-408e-496b-8cd3-b228175cc2ff}, !- Layer 4
  {ab353d71-47a0-48b8-9e24-27ec67a3337b}; !- Layer 5

OS:Construction,
  {130312ea-4f1e-49aa-ace6-618903d0d994}, !- Handle
  MetalFrameWallU055,                     !- Name
  ,                                       !- Surface Rendering Name
  {80aad02d-88ca-4c2d-a6f2-4e932f29b98f}, !- Layer 1
  {e650d789-5529-45ba-a66e-d198f7af14f2}, !- Layer 2
  {f29548e6-6ec6-4750-ae67-95ca0e7fc9b7}, !- Layer 3
  {ed18c83d-68cb-4f1d-b21f-421d2faa5a47}, !- Layer 4
  {ed18c83d-68cb-4f1d-b21f-421d2faa5a47}, !- Layer 5
  {75487c5b-51ba-44b4-96d5-66fbbf8467a9}, !- Layer 6
  {180ec35a-be4c-441f-b7c9-5e1772172928}; !- Layer 7

OS:Construction,
  {8fe1b243-585f-4ee5-b056-ec1828c48912}, !- Handle
  MetalFrameWallInterior,                 !- Name
  ,                                       !- Surface Rendering Name
  {2c0039a1-6c55-4c2f-8583-ce1ecaba1c76}, !- Layer 1
  {64e82d4a-b092-46a4-a39d-09d3b18a8dbb}, !- Layer 2
  {2c0039a1-6c55-4c2f-8583-ce1ecaba1c76}; !- Layer 3

OS:Material,
  {64e82d4a-b092-46a4-a39d-09d3b18a8dbb}, !- Handle
  Air - Metal Wall Framing - 16 or 24 in. OC 1, !- Name
  Smooth,                                 !- Roughness
  0.1397,                                 !- Thickness {m}
  1.22016793979183,                       !- Conductivity {W/m-K}
  1.28147706991681,                       !- Density {kg/m3}
  1004.832;                               !- Specific Heat {J/kg-K}

OS:WindowMaterial:SimpleGlazingSystem,
  {f110a220-89bb-4e25-ad43-52f2d2505b90}, !- Handle
  Nonres Fixed Window Material,           !- Name
  1.93060953597858,                       !- U-Factor {W/m2-K}
  0.22,                                   !- Solar Heat Gain Coefficient
  0.42;                                   !- Visible Transmittance

OS:Construction,
  {ac54839f-610f-40bc-a483-514cb2673d35}, !- Handle
  Nonres Fixed Window,                    !- Name
  ,                                       !- Surface Rendering Name
  {f110a220-89bb-4e25-ad43-52f2d2505b90}; !- Layer 1

OS:Curve:Biquadratic,
  {45a40502-9d08-4bd4-871d-e0240ac815ec}, !- Handle
  CoilClgDXQRatio_fTwbToadbSI,            !- Name
  0.86779,                                !- Coefficient1 Constant
  0.014245,                               !- Coefficient2 x
  0.000554,                               !- Coefficient3 x**2
  -0.007569,                              !- Coefficient4 y
  3.2e-05,                                !- Coefficient5 y**2
  -0.000191,                              !- Coefficient6 x*y
  13.89,                                  !- Minimum Value of x
  25,                                     !- Maximum Value of x
  23.89,                                  !- Minimum Value of y
  46.11,                                  !- Maximum Value of y
  0.77,                                   !- Minimum Curve Output
  1.29;                                   !- Maximum Curve Output

OS:Curve:Biquadratic,
  {a544c64f-2f08-4a6b-9d63-3f7c1eb39765}, !- Handle
  CoilClgDXQRatio_fTwbToadbIP,            !- Name
  0.874962,                               !- Coefficient1 Constant
  -0.00114282,                            !- Coefficient2 x
  0.00017128,                             !- Coefficient3 x**2
  -0.00296015,                            !- Coefficient4 y
  1.021e-05,                              !- Coefficient5 y**2
  -5.926e-05,                             !- Coefficient6 x*y
  57,                                     !- Minimum Value of x
  77,                                     !- Maximum Value of x
  75,                                     !- Minimum Value of y
  115,                                    !- Maximum Value of y
  0.77,                                   !- Minimum Curve Output
  1.29;                                   !- Maximum Curve Output

OS:Curve:Biquadratic,
  {a6415fb1-aeb6-4d5a-b1de-d420f0bd00d6}, !- Handle
  CoilClgDXEIRRatio_fTwbToadbSI,          !- Name
  0.116709,                               !- Coefficient1 Constant
  0.028458,                               !- Coefficient2 x
  -0.000411,                              !- Coefficient3 x**2
  0.021422,                               !- Coefficient4 y
  0.000162,                               !- Coefficient5 y**2
  -0.00068,                               !- Coefficient6 x*y
  13.89,                                  !- Minimum Value of x
  25,                                     !- Maximum Value of x
  23.89,                                  !- Minimum Value of y
  46.11,                                  !- Maximum Value of y
  0.77,                                   !- Minimum Curve Output
  1.33;                                   !- Maximum Curve Output

OS:Curve:Biquadratic,
  {4ddff1ef-a9f6-4fe2-bddd-cc64b9cbdb63}, !- Handle
  CoilClgDXEIRRatio_fTwbToadbIP,          !- Name
  -1.06393,                               !- Coefficient1 Constant
  0.0306584,                              !- Coefficient2 x
  -0.0001269,                             !- Coefficient3 x**2
  0.0154213,                              !- Coefficient4 y
  4.97e-05,                               !- Coefficient5 y**2
  -0.0002096,                             !- Coefficient6 x*y
  57,                                     !- Minimum Value of x
  77,                                     !- Maximum Value of x
  75,                                     !- Minimum Value of y
  115,                                    !- Maximum Value of y
  0.77,                                   !- Minimum Curve Output
  1.33;                                   !- Maximum Curve Output

OS:Curve:Cubic,
  {f2aa19c4-1686-4d96-b4d8-bb03a2aeed67}, !- Handle
  FanVSDGoodSpResetPwrRatio_fCFMRatio,    !- Name
  0.04076,                                !- Coefficient1 Constant
  0.088045,                               !- Coefficient2 x
  -0.072926,                              !- Coefficient3 x**2
  0.94374,                                !- Coefficient4 x**3
  0.342,                                  !- Minimum Value of x
  1,                                      !- Maximum Value of x
  0.1,                                    !- Minimum Curve Output