
OS:Version,
  {e7b7fcae-2b34-4cde-95ef-6643388070da}, !- Handle
  3.10.0;                                 !- Version Identifier

OS:SimulationControl,
  {3c10be13-4fd8-4e2f-a53b-ff06f56ad64f}, !- Handle
  ,                                       !- Do Zone Sizing Calculation
  ,                                       !- Do System Sizing Calculation
  ,                                       !- Do Plant Sizing Calculation
  No,                                     !- Run Simulation for Sizing Periods
  Yes,                                    !- Run Simulation for Weather File Run Periods
  ,                                       !- Loads Convergence Tolerance Value {W}
  ,                                       !- Temperature Convergence Tolerance Value {deltaC}
  FullExterior,                           !- Solar Distribution
  50;                                     !- Maximum Number of Warmup Days

OS:YearDescription,
  {d93c8d42-82da-42ac-9319-46c2cfe6311f}, !- Handle
  2009,                                   !- Calendar Year
  ,                                       !- Day of Week for Start Day
  ;                                       !- Is Leap Year

OS:RunPeriod,
  {dea9220e-6cd4-41ea-bde5-d65e7fd6a80b}, !- Handle
  CA_Title24_2025_LOS-ANGELES-USC,        !- Name
  1,                                      !- Begin Month
  1,                                      !- Begin Day of Month
  12,                                     !- End Month
  31,                                     !- End Day of Month
  No,                                     !- Use Weather File Holidays and Special Days
  No,                                     !- Use Weather File Daylight Saving Period
  Yes,                                    !- Apply Weekend Holiday Rule
  ,                                       !- Use Weather File Rain Indicators
  ,                                       !- Use Weather File Snow Indicators
  ;                                       !- Number of Times Runperiod to be Repeated

OS:Site,
  {11147492-3b88-4e17-a3f4-ae84349d1106}, !- Handle
  LOS ANGELES USC,                        !- Name
  38.69,                                  !- Latitude {deg}
  -121.6,                                 !- Longitude {deg}
  -8,                                     !- Time Zone {hr}
  54.5592,                                !- Elevation {m}
  Suburbs;                                !- Terrain

OS:SizingPeriod:DesignDay,
  {df17ad0d-12ae-4a6b-9bb4-09322bed1161}, !- Handle
  LOS ANGELES USC Ann Htg 99.6% Condns DB, !- Name
  6.2,                                    !- Maximum Dry-Bulb Temperature {C}
  0,                                      !- Daily Dry-Bulb Temperature Range {deltaC}
  100663,                                 !- Barometric Pressure {Pa}
  0.6,                                    !- Wind Speed {m/s}
  20,                                     !- Wind Direction {deg}
  0,                                      !- Sky Clearness
  No,                                     !- Rain Indicator
  No,                                     !- Snow Indicator
  21,                                     !- Day of Month
  12,                                     !- Month
  WinterDesignDay,                        !- Day Type
  No,                                     !- Daylight Saving Time Indicator
  Wetbulb,                                !- Humidity Condition Type
  ,                                       !- Humidity Condition Day Schedule Name
  6.2,                                    !- Wetbulb or DewPoint at Maximum Dry-Bulb {C}
  ,                                       !- Humidity Ratio at Maximum Dry-Bulb {kgWater/kgDryAir}
  ,                                       !- Enthalpy at Maximum Dry-Bulb {J/kg}
  DefaultMultipliers,                     !- Dry-Bulb Temperature Range Modifier Type
  ,                                       !- Dry-Bulb Temperature Range Modifier Day Schedule Name
  ASHRAEClearSky;                         !- Solar Model Indicator

OS:SizingPeriod:DesignDay,
  {386998b8-bf28-4b3c-b708-a94611939e48}, !- Handle
  LOS ANGELES USC  June .4% Condns DB=>MCWB, !- Name
  32.3,                                   !- Maximum Dry-Bulb Temperature {C}
  8.2,                                    !- Daily Dry-Bulb Temperature Range {deltaC}
  100663,                                 !- Barometric Pressure {Pa}
  0.6,                                    !- Wind Speed {m/s}
  260,                                    !- Wind Direction {deg}
  ,                                       !- Sky Clearness
  No,                                     !- Rain Indicator
  No,                                     !- Snow Indicator
  21,                                     !- Day of Month
  6,                                      !- Month
  SummerDesignDay,                        !- Day Type
  No,                                     !- Daylight Saving Time Indicator
  Wetbulb,                                !- Humidity Condition Type
  ,                                       !- Humidity Condition Day Schedule Name
  20.7,                                   !- Wetbulb or DewPoint at Maximum Dry-Bulb {C}
  ,                                       !- Humidity Ratio at Maximum Dry-Bulb {kgWater/kgDryAir}
  ,                                       !- Enthalpy at Maximum Dry-Bulb {J/kg}
  DefaultMultipliers,                     !- Dry-Bulb Temperature Range Modifier Type
  ,                                       !- Dry-Bulb Temperature Range Modifier Day Schedule Name
  ASHRAETau,                              !- Solar Model Indicator
  ,                                       !- Beam Solar Day Schedule Name
  ,                                       !- Diffuse Solar Day Schedule Name
  0.405,                                  !- ASHRAE Clear Sky Optical Depth for Beam Irradiance {dimensionless}
  2.324;                                  !- ASHRAE Clear Sky Optical Depth for Diffuse Irradiance {dimensionless}

OS:SizingPeriod:DesignDay,
  {afbb67de-7b2d-41d7-b050-78ba2c7f13f0}, !- Handle
  LOS ANGELES USC  July .4% Condns DB=>MCWB, !- Name
  33.8,                                   !- Maximum Dry-Bulb Temperature {C}
  9.2,                                    !- Daily Dry-Bulb Temperature Range {deltaC}
  100663,                                 !- Barometric Pressure {Pa}
  0.6,                                    !- Wind Speed {m/s}
  260,                                    !- Wind Direction {deg}
  ,                                       !- Sky Clearness
  No,                                     !- Rain Indicator
  No,                                     !- Snow Indicator
  21,                                     !- Day of Month
  7,                                      !- Month
  SummerDesignDay,                        !- Day Type
  No,                                     !- Daylight Saving Time Indicator
  Wetbulb,                                !- Humidity Condition Type
  ,                                       !- Humidity Condition Day Schedule Name
  22.1,                                   !- Wetbulb or DewPoint at Maximum Dry-Bulb {C}
  ,                                       !- Humidity Ratio at Maximum Dry-Bulb {kgWater/kgDryAir}
  ,                                       !- Enthalpy at Maximum Dry-Bulb {J/kg}
  DefaultMultipliers,                     !- Dry-Bulb Temperature Range Modifier Type
  ,                                       !- Dry-Bulb Temperature Range Modifier Day Schedule Name
  ASHRAETau,                              !- Solar Model Indicator
  ,                                       !- Beam Solar Day Schedule Name
  ,                                       !- Diffuse Solar Day Schedule Name
  0.402,                                  !- ASHRAE Clear Sky Optical Depth for Beam Irradiance {dimensionless}
  2.401;                                  !- ASHRAE Clear Sky Optical Depth for Diffuse Irradiance {dimensionless}

OS:SizingPeriod:DesignDay,
  {9b0613c6-a922-4b43-aa19-a8d6f0176cae}, !- Handle
  LOS ANGELES USC  August .4% Condns DB=>MCWB, !- Name
  33.7,                                   !- Maximum Dry-Bulb Temperature {C}
  9.6,                                    !- Daily Dry-Bulb Temperature Range {deltaC}
  100663,                                 !- Barometric Pressure {Pa}
  0.6,                                    !- Wind Speed {m/s}
  260,                                    !- Wind Direction {deg}
  ,                                       !- Sky Clearness
  No,                                     !- Rain Indicator
  No,                                     !- Snow Indicator
  21,                                     !- Day of Month
  8,                                      !- Month
  SummerDesignDay,                        !- Day Type
  No,                                     !- Daylight Saving Time Indicator
  Wetbulb,                                !- Humidity Condition Type
  ,                                       !- Humidity Condition Day Schedule Name
  21.2,                                   !- Wetbulb or DewPoint at Maximum Dry-Bulb {C}
  ,                                       !- Humidity Ratio at Maximum Dry-Bulb {kgWater/kgDryAir}
  ,                                       !- Enthalpy at Maximum Dry-Bulb {J/kg}
  DefaultMultipliers,                     !- Dry-Bulb Temperature Range Modifier Type
  ,                                       !- Dry-Bulb Temperature Range Modifier Day Schedule Name
  ASHRAETau,                              !- Solar Model Indicator
  ,                                       !- Beam Solar Day Schedule Name
  ,                                       !- Diffuse Solar Day Schedule Name
  0.383,                                  !- ASHRAE Clear Sky Optical Depth for Beam Irradiance {dimensionless}
  2.433;                                  !- ASHRAE Clear Sky Optical Depth for Diffuse Irradiance {dimensionless}

OS:SizingPeriod:DesignDay,
  {825df8c3-8908-45e2-857b-53173e04a1b6}, !- Handle
  LOS ANGELES USC  September .4% Condns DB=>MCWB, !- Name
  36.3,                                   !- Maximum Dry-Bulb Temperature {C}
  9.8,                                    !- Daily Dry-Bulb Temperature Range {deltaC}
  100663,                                 !- Barometric Pressure {Pa}
  0.6,                                    !- Wind Speed {m/s}
  260,                                    !- Wind Direction {deg}
  ,                                       !- Sky Clearness
  No,                                     !- Rain Indicator
  No,                                     !- Snow Indicator
  21,                                     !- Day of Month
  9,                                      !- Month
  SummerDesignDay,                        !- Day Type
  No,                                     !- Daylight Saving Time Indicator
  Wetbulb,                                !- Humidity Condition Type
  ,                                       !- Humidity Condition Day Schedule Name
  20.1,                                   !- Wetbulb or DewPoint at Maximum Dry-Bulb {C}
  ,                                       !- Humidity Ratio at Maximum Dry-Bulb {kgWater/kgDryAir}
  ,                                       !- Enthalpy at Maximum Dry-Bulb {J/kg}
  DefaultMultipliers,                     !- Dry-Bulb Temperature Range Modifier Type
  ,                                       !- Dry-Bulb Temperature Range Modifier Day Schedule Name
  ASHRAETau,                              !- Solar Model Indicator
  ,                                       !- Beam Solar Day Schedule Name
  ,                                       !- Diffuse Solar Day Schedule Name
  0.369,                                  !- ASHRAE Clear Sky Optical Depth for Beam Irradiance {dimensionless}
  2.465;                                  !- ASHRAE Clear Sky Optical Depth for Diffuse Irradiance {dimensionless}

OS:SizingPeriod:DesignDay,
  {0c3c06ae-7a2e-40a9-b9ad-bffd90ad36c4}, !- Handle
  LOS ANGELES USC  October .4% Condns DB=>MCWB, !- Name
  35.2,                                   !- Maximum Dry-Bulb Temperature {C}
  9.9,                                    !- Daily Dry-Bulb Temperature Range {deltaC}
  100663,                                 !- Barometric Pressure {Pa}
  0.6,                                    !- Wind Speed {m/s}
  260,                                    !- Wind Direction {deg}
  ,                                       !- Sky Clearness
  No,                                     !- Rain Indicator
  No,                                     !- Snow Indicator
  21,                                     !- Day of Month
  10,                                     !- Month
  SummerDesignDay,                        !- Day Type
  No,                                     !- Daylight Saving Time Indicator
  Wetbulb,                                !- Humidity Condition Type
  ,                                       !- Humidity Condition Day Schedule Name
  16.8,                                   !- Wetbulb or DewPoint at Maximum Dry-Bulb {C}
  ,                                       !- Humidity Ratio at Maximum Dry-Bulb {kgWater/kgDryAir}
  ,                                       !- Enthalpy at Maximum Dry-Bulb {J/kg}
  DefaultMultipliers,                     !- Dry-Bulb Temperature Range Modifier Type
  ,                                       !- Dry-Bulb Temperature Range Modifier Day Schedule Name
  ASHRAETau,                              !- Solar Model Indicator
  ,                                       !- Beam Solar Day Schedule Name
  ,                                       !- Diffuse Solar Day Schedule Name
  0.38,                                   !- ASHRAE Clear Sky Optical Depth for Beam Irradiance {dimensionless}
  2.397;                                  !- ASHRAE Clear Sky Optical Depth for Diffuse Irradiance {dimensionless}

OS:SizingPeriod:DesignDay,
  {addacbba-97b1-4e28-9cf9-617ea07aa2d2}, !- Handle
  LOS ANGELES USC  November .4% Condns DB=>MCWB, !- Name
  31.9,                                   !- Maximum Dry-Bulb Temperature {C}
  10.4,                                   !- Daily Dry-Bulb Temperature Range {deltaC}
  100663,                                 !- Barometric Pressure {Pa}
  0.6,                                    !- Wind Speed {m/s}
  260,                                    !- Wind Direction {deg}
  ,                                       !- Sky Clearness
  No,                                     !- Rain Indicator
  No,                                     !- Snow Indicator
  21,                                     !- Day of Month
  11,                                     !- Month
  SummerDesignDay,                        !- Day Type
  No,                                     !- Daylight Saving Time Indicator
  Wetbulb,                                !- Humidity Condition Type
  ,                                       !- Humidity Condition Day Schedule Name
  15.4,                                   !- Wetbulb or DewPoint at Maximum Dry-Bulb {C}
  ,                                       !- Humidity Ratio at Maximum Dry-Bulb {kgWater/kgDryAir}
  ,                                       !- Enthalpy at Maximum Dry-Bulb {J/kg}
  DefaultMultipliers,                     !- Dry-Bulb Temperature Range Modifier Type
  ,                                       !- Dry-Bulb Temperature Range Modifier Day Schedule Name
  ASHRAETau,                              !- Solar Model Indicator
  ,                                       !- Beam Solar Day Schedule Name
  ,                                       !- Diffuse Solar Day Schedule Name
  0.325,                                  !- ASHRAE Clear Sky Optical Depth for Beam Irradiance {dimensionless}
  2.558;                                  !- ASHRAE Clear Sky Optical Depth for Diffuse Irradiance {dimensionless}

OS:WeatherFile,
  {8ba7d862-5cf9-4e54-abd1-3e5e4a0fa46e}, !- Handle
  Usc Downtown La Campus,                 !- City
  CA,                                     !- State Province Region
  USA,                                    !- Country
  USC-DOWNTOWN-LA-CAMPUS,                 !- Data Source
  722874,                                 !- WMO Number
  34.024,                                 !- Latitude {deg}
  -118.291,                               !- Longitude {deg}
  -8,                                     !- Time Zone {hr}
  54.6,                                   !- Elevation {m}
  C:/Users/NeilBulger/Documents/CBECC 2025 Data/EPW25/CA_Title24_2025_LOS-ANGELES-USC.epw, !- Url
  FDD82080,                               !- Checksum
  ,                                       !- Start Date Actual Year
  Sunday;                                 !- Start Day of Week

OS:Sizing:Parameters,
  {a0b1e71f-a622-4f4b-b5ff-026be6d117c1}, !- Handle
  1,                                      !- Heating Sizing Factor
  1;                                      !- Cooling Sizing Factor

OS:Material,
  {ca5e386e-cf64-432f-8f7d-02c76dba2eb0}, !- Handle
  1/2IN Gypsum,                           !- Name
  Smooth,                                 !- Roughness
  0.0127,                                 !- Thickness {m}
  0.158656446866265,                      !- Conductivity {W/m-K}
  640.738534958406,                       !- Density {kg/m3}
  1130.436,                               !- Specific Heat {J/kg-K}
  0.9,                                    !- Thermal Absorptance
  0.7,                                    !- Solar Absorptance
  0.8;                                    !- Visible Absorptance

OS:Material,
  {5481d100-3753-4daf-9bea-8c429e05d996}, !- Handle
  1IN Stucco,                             !- Name
  MediumRough,                            !- Roughness
  0.0254,                                 !- Thickness {m}
  0.0359992810605248,                     !- Conductivity {W/m-K}
  24.0276950609402,                       !- Density {kg/m3}
  1465.38,                                !- Specific Heat {J/kg-K}
  0.9,                                    !- Thermal Absorptance
  0.7,                                    !- Solar Absorptance
  0.8;                                    !- Visible Absorptance

OS:Material,
  {e893f24b-7f55-4620-9a43-f099f51fbf4b}, !- Handle
  CP02 CARPET PAD,                        !- Name
  Smooth,                                 !- Roughness
  0.01905,                                !- Thickness {m}
  0.0455183217255675,                     !- Conductivity {W/m-K}
  288.332340731282,                       !- Density {kg/m3}
  1381.644,                               !- Specific Heat {J/kg-K}
  0.9,                                    !- Thermal Absorptance
  0.7,                                    !- Solar Absorptance
  0.8;                                    !- Visible Absorptance

OS:Material,
  {3891ec16-1b50-4f28-9e46-cbc5e0e2fb74}, !- Handle
  F04 Wall air space resistance,          !- Name
  Smooth,                                 !- Roughness
  0.1524,                                 !- Thickness {m}
  0.940308144239574,                      !- Conductivity {W/m-K}
  1.28147706991681,                       !- Density {kg/m3}
  1004.832;                               !- Specific Heat {J/kg-K}

OS:Material,
  {771b26bd-12cd-4adc-bded-d5d62e04d7e3}, !- Handle
  G01a 19mm gypsum board,                 !- Name
  MediumRough,                            !- Roughness
  0.01905,                                !- Thickness {m}
  0.158656446866265,                      !- Conductivity {W/m-K}
  640.738534958406,                       !- Density {kg/m3}
  1130.436,                               !- Specific Heat {J/kg-K}
  0.9,                                    !- Thermal Absorptance
  0.7,                                    !- Solar Absorptance
  0.8;                                    !- Visible Absorptance

OS:Material,
  {7549e0ce-45a9-45b6-9675-14690a0a52a5}, !- Handle
  I01 25mm insulation board,              !- Name
  Smooth,                                 !- Roughness
  0.0889,                                 !- Thickness {m}
  0.0458644686588418,                     !- Conductivity {W/m-K}
  11.2129243617721,                       !- Density {kg/m3}
  837.36;                                 !- Specific Heat {J/kg-K}

OS:Material,
  {0b777a89-ac10-45db-bf24-bc37525215d5}, !- Handle
  Metal Decking,                          !- Name
  Smooth,                                 !- Roughness
  0.0015875,                              !- Thickness {m}
  45.3452482589303,                       !- Conductivity {W/m-K}
  7820.53418843482,                       !- Density {kg/m3}
  502.416,                                !- Specific Heat {J/kg-K}
  0.9,                                    !- Thermal Absorptance
  0.7,                                    !- Solar Absorptance
  0.8;                                    !- Visible Absorptance

OS:Material,
  {fb3d81b6-1dee-475a-89d3-f59273baba38}, !- Handle
  Roof Membrane,                          !- Name
  MediumRough,                            !- Roughness
  0.001524,                               !- Thickness {m}
  1.19714916872909,                       !- Conductivity {W/m-K}
  230.665872585026,                       !- Density {kg/m3}
  1256.04,                                !- Specific Heat {J/kg-K}
  0.85,                                   !- Thermal Absorptance
  0.92,                                   !- Solar Absorptance
  0.85;                                   !- Visible Absorptance

OS:Material:NoMass,
  {188405fc-50d4-4175-bacd-e0f56aa12af9}, !- Handle
  Metal Framed Wall - 16 in oc 5 in depth R-21 ins, !- Name
  Smooth,                                 !- Roughness
  0.718177329056445;                      !- Thermal Resistance {m2-K/W}

OS:Material,
  {e3c16826-e777-438b-b41e-d78e5db0b740}, !- Handle
  Wall Ext - Board Insulation,            !- Name
  Smooth,                                 !- Roughness
  0.03243072,                             !- Thickness {m}
  0.0230187710627394,                     !- Conductivity {W/m-K}
  16.0184633739601,                       !- Density {kg/m3}
  1130.436;                               !- Specific Heat {J/kg-K}

OS:Material,
  {acc1f6de-1e73-4e07-8cce-af5a1190ac6b}, !- Handle
  Roof Insulation R-35,                   !- Name
  Smooth,                                 !- Roughness
  0.141600682,                            !- Thickness {m}
  0.0230187710627394,                     !- Conductivity {W/m-K}
  16.0184633739601,                       !- Density {kg/m3}
  1130.436;                               !- Specific Heat {J/kg-K}

OS:Material,
  {0cb38181-65ad-4557-9d62-b15e9dbc1d97}, !- Handle
  Floor Insulation R-20,                  !- Name
  MediumRough,                            !- Roughness
  0.0810768,                              !- Thickness {m}
  0.0230187710627394,                     !- Conductivity {W/m-K}
  16.0184633739601,                       !- Density {kg/m3}
  1130.436,                               !- Specific Heat {J/kg-K}
  0.9,                                    !- Thermal Absorptance
  0.7,                                    !- Solar Absorptance
  0.8;                                    !- Visible Absorptance

OS:Construction,
  {959b38ad-5ec4-4dd0-98ca-9bc847ddcfe6}, !- Handle
  FlatNonresWoodFramingAndOtherRoofU028,  !- Name
  ,                                       !- Surface Rendering Name
  {fb3d81b6-1dee-475a-89d3-f59273baba38}, !- Layer 1
  {acc1f6de-1e73-4e07-8cce-af5a1190ac6b}, !- Layer 2
  {0b777a89-ac10-45db-bf24-bc37525215d5}; !- Layer 3

OS:Construction,
  {e303d0eb-1364-4e08-9f04-558e2590957d}, !- Handle
  MetalFrameWallU055,                     !- Name
  ,                                       !- Surface Rendering Name
  {5481d100-3753-4daf-9bea-8c429e05d996}, !- Layer 1
  {ca5e386e-cf64-432f-8f7d-02c76dba2eb0}, !- Layer 2
  {e3c16826-e777-438b-b41e-d78e5db0b740}, !- Layer 3
  {ca5e386e-cf64-432f-8f7d-02c76dba2eb0}, !- Layer 4
  {188405fc-50d4-4175-bacd-e0f56aa12af9}, !- Layer 5
  {ca5e386e-cf64-432f-8f7d-02c76dba2eb0}; !- Layer 6

OS:Construction,
  {74495ecb-57be-4ecc-b42c-0494f42362d3}, !- Handle
  ExtSlabCarpet 4in ClimateZone 1-8,      !- Name
  ,                                       !- Surface Rendering Name
  {0cb38181-65ad-4557-9d62-b15e9dbc1d97}, !- Layer 1
  {189e589d-bc10-40df-8955-40084ad172ad}, !- Layer 2
  {e893f24b-7f55-4620-9a43-f099f51fbf4b}; !- Layer 3

OS:Material,
  {189e589d-bc10-40df-8955-40084ad172ad}, !- Handle
  1/2IN Gypsum 1,                         !- Name
  Smooth,                                 !- Roughness
  0.0127,                                 !- Thickness {m}
  0.158656446866265,                      !- Conductivity {W/m-K}
  640.738534958406,                       !- Density {kg/m3}
  1130.436,                               !- Specific Heat {J/kg-K}
  0.9,                                    !- Thermal Absorptance
  0.7,                                    !- Solar Absorptance
  0.8;                                    !- Visible Absorptance

OS:Construction,
  {fdd038d0-2172-49fc-a6d2-b93ddecf1bb2}, !- Handle
  Interior Wall,                          !- Name
  ,                                       !- Surface Rendering Name
  {771b26bd-12cd-4adc-bded-d5d62e04d7e3}, !- Layer 1
  {3891ec16-1b50-4f28-9e46-cbc5e0e2fb74}, !- Layer 2
  {7549e0ce-45a9-45b6-9675-14690a0a52a5}, !- Layer 3
  {771b26bd-12cd-4adc-bded-d5d62e04d7e3}; !- Layer 4

OS:Material:NoMass,
  {678f0555-5604-404b-a4f4-05d6e3757864}, !- Handle
  Exterior Door Material,                 !- Name
  MediumSmooth,                           !- Roughness
  0.101893286975538;                      !- Thermal Resistance {m2-K/W}

OS:Construction,
  {1b92cfe1-c584-463f-ae0b-7e4805a80b24}, !- Handle
  Exterior Door,                          !- Name
  ,                                       !- Surface Rendering Name
  {678f0555-5604-404b-a4f4-05d6e3757864}; !- Layer 1

OS:Material:NoMass,
  {2bffb7fe-aeba-48cc-bb49-358eb44b26df}, !- Handle
  Interior Door Material,                 !- Name
  MediumSmooth,                           !- Roughness
  0.290582769492295;                      !- Thermal Resistance {m2-K/W}

OS:Construction,
  {caac88fb-8faf-4fe7-8e92-6acc102a6ed4}, !- Handle
  Interior Door,                          !- Name
  ,                                       !- Surface Rendering Name
  {2bffb7fe-aeba-48cc-bb49-358eb44b26df}; !- Layer 1

OS:WindowMaterial:SimpleGlazingSystem,
  {6e615e1e-db0d-41cd-9de8-c509a9af8ed8}, !- Handle
  Exterior Window - Fixed Material,       !- Name
  1.93060953597858,                       !- U-Factor {W/m2-K}
  0.22,                                   !- Solar Heat Gain Coefficient
  0.42;                                   !- Visible Transmittance

OS:Construction,
  {2d419997-1478-4123-a169-49b5612ff342}, !- Handle
  Exterior Window - Fixed,                !- Name
  ,                                       !- Surface Rendering Name
  {6e615e1e-db0d-41cd-9de8-c509a9af8ed8}; !- Layer 1

OS:WindowMaterial:SimpleGlazingSystem,
  {d9f71bba-b4fe-49f0-9aff-d187391a057b}, !- Handle
  Skylight - Fixed Material,              !- Name
  3.29339273784581,                       !- U-Factor {W/m2-K}
  0.25,                                   !- Solar Heat Gain Coefficient
  0.49;                                   !- Visible Transmittance

OS:Construction,
  {4d4ef44e-cf44-482e-b27b-336bed39344e}, !- Handle
  Skylight - Fixed,                       !- Name
  ,                                       !- Surface Rendering Name
  {d9f71bba-b4fe-49f0-9aff-d187391a057b}; !- Layer 1

OS:Curve:Biquadratic,
  {8a2f277b-35fb-4013-8230-6bfbbf55ff81}, !- Handle
  CoilClgDXQRatio_fTwbToadbSI,            !- Name
  0.86779,                                !- Coefficient1 Constant
  0.014245,                               !- Coefficient2 x
  0.000554,                               !- Coefficient3 x**2
  -0.007569,                              !- Coefficient4 y
  3.2e-05,                                !- Coefficient5 y**2
  -0.000191,                              !- Coefficient6 x*y
  13.89,                                  !- Minimum Value of x
  25,                                     !- Maximum Value of x
  23.89,                                  !- Minimum Value of y
  46.11,                                  !- Maximum Value of y
  0.77,                                   !- Minimum Curve Output
  1.29;                                   !- Maximum Curve Output

OS:Curve:Biquadratic,
  {52dd693b-744a-433e-9baf-d5c9c340f5e6}, !- Handle
  CoilClgDXEIRRatio_fTwbToadbSI,          !- Name
  0.116709,                               !- Coefficient1 Constant
  0.028458,                               !- Coefficient2 x
  -0.000411,                              !- Coefficient3 x**2
  0.021422,                               !- Coefficient4 y
  0.000162,                               !- Coefficient5 y**2
  -0.00068,                               !- Coefficient6 x*y
  13.89,                                  !- Minimum Value of x
  25,                                     !- Maximum Value of x
  23.89,                                  !- Minimum Value of y
  46.11,                                  !- Maximum Value of y
  0.77,                                   !- Minimum Curve Output
  1.33;                                   !- Maximum Curve Output

OS:Curve:Cubic,
  {92bbc045-a9f7-4ea6-98a0-9c39243c32de}, !- Handle
  FanVSDPerfSpResetPwrRatio_fCFMRatio,    !- Name