
OS:Version,
  {92374ca5-8639-4248-a712-6beb61f1dbdb}, !- Handle
  3.10.0;                                 !- Version Identifier

OS:SimulationControl,
  {df2a637a-f941-4dbd-8581-16e0dab0a1dc}, !- Handle
  ,                                       !- Do Zone Sizing Calculation
  ,                                       !- Do System Sizing Calculation
  ,                                       !- Do Plant Sizing Calculation
  No,                                     !- Run Simulation for Sizing Periods
  Yes,                                    !- Run Simulation for Weather File Run Periods
  ,                                       !- Loads Convergence Tolerance Value {W}
  ,                                       !- Temperature Convergence Tolerance Value {deltaC}
  FullExterior,                           !- Solar Distribution
  50;                                     !- Maximum Number of Warmup Days

OS:YearDescription,
  {a819e950-d894-4770-9b5f-f48c46125756}, !- Handle
  2009,                                   !- Calendar Year
  ,                                       !- Day of Week for Start Day
  ;                                       !- Is Leap Year

OS:RunPeriod,
  {f21d3abf-1919-4cd1-92cd-4c198fbd254a}, !- Handle
  CA_Title24_2025_LOS-ANGELES-USC,        !- Name
  1,                                      !- Begin Month
  1,                                      !- Begin Day of Month
  12,                                     !- End Month
  31,                                     !- End Day of Month
  No,                                     !- Use Weather File Holidays and Special Days
  No,                                     !- Use Weather File Daylight Saving Period
  Yes,                                    !- Apply Weekend Holiday Rule
  ,                                       !- Use Weather File Rain Indicators
  ,                                       !- Use Weather File Snow Indicators
  ;                                       !- Number of Times Runperiod to be Repeated

OS:Site,
  {c389b75d-bb56-4ac8-b350-44440f1dc40e}, !- Handle
  LOS ANGELES USC,                        !- Name
  33.95,                                  !- Latitude {deg}
  -118.4,                                 !- Longitude {deg}
  -8,                                     !- Time Zone {hr}
  54.5592,                                !- Elevation {m}
  Suburbs;                                !- Terrain

OS:SizingPeriod:DesignDay,
  {5e15fae4-a996-4af0-9990-c3d0ce1faee3}, !- Handle
  LOS ANGELES USC Ann Htg 99.6% Condns DB, !- Name
  6.2,                                    !- Maximum Dry-Bulb Temperature {C}
  0,                                      !- Daily Dry-Bulb Temperature Range {deltaC}
  100663,                                 !- Barometric Pressure {Pa}
  0.6,                                    !- Wind Speed {m/s}
  20,                                     !- Wind Direction {deg}
  0,                                      !- Sky Clearness
  No,                                     !- Rain Indicator
  No,                                     !- Snow Indicator
  21,                                     !- Day of Month
  12,                                     !- Month
  WinterDesignDay,                        !- Day Type
  No,                                     !- Daylight Saving Time Indicator
  Wetbulb,                                !- Humidity Condition Type
  ,                                       !- Humidity Condition Day Schedule Name
  6.2,                                    !- Wetbulb or DewPoint at Maximum Dry-Bulb {C}
  ,                                       !- Humidity Ratio at Maximum Dry-Bulb {kgWater/kgDryAir}
  ,                                       !- Enthalpy at Maximum Dry-Bulb {J/kg}
  DefaultMultipliers,                     !- Dry-Bulb Temperature Range Modifier Type
  ,                                       !- Dry-Bulb Temperature Range Modifier Day Schedule Name
  ASHRAEClearSky;                         !- Solar Model Indicator

OS:SizingPeriod:DesignDay,
  {b499f3e0-4644-4e44-b1fa-3128a89f4eb7}, !- Handle
  LOS ANGELES USC  June .4% Condns DB=>MCWB, !- Name
  32.3,                                   !- Maximum Dry-Bulb Temperature {C}
  8.2,                                    !- Daily Dry-Bulb Temperature Range {deltaC}
  100663,                                 !- Barometric Pressure {Pa}
  0.6,                                    !- Wind Speed {m/s}
  260,                                    !- Wind Direction {deg}
  ,                                       !- Sky Clearness
  No,                                     !- Rain Indicator
  No,                                     !- Snow Indicator
  21,                                     !- Day of Month
  6,                                      !- Month
  SummerDesignDay,                        !- Day Type
  No,                                     !- Daylight Saving Time Indicator
  Wetbulb,                                !- Humidity Condition Type
  ,                                       !- Humidity Condition Day Schedule Name
  20.7,                                   !- Wetbulb or DewPoint at Maximum Dry-Bulb {C}
  ,                                       !- Humidity Ratio at Maximum Dry-Bulb {kgWater/kgDryAir}
  ,                                       !- Enthalpy at Maximum Dry-Bulb {J/kg}
  DefaultMultipliers,                     !- Dry-Bulb Temperature Range Modifier Type
  ,                                       !- Dry-Bulb Temperature Range Modifier Day Schedule Name
  ASHRAETau,                              !- Solar Model Indicator
  ,                                       !- Beam Solar Day Schedule Name
  ,                                       !- Diffuse Solar Day Schedule Name
  0.405,                                  !- ASHRAE Clear Sky Optical Depth for Beam Irradiance {dimensionless}
  2.324;                                  !- ASHRAE Clear Sky Optical Depth for Diffuse Irradiance {dimensionless}

OS:SizingPeriod:DesignDay,
  {565ddaa2-e25a-491a-a652-b287853591ae}, !- Handle
  LOS ANGELES USC  July .4% Condns DB=>MCWB, !- Name
  33.8,                                   !- Maximum Dry-Bulb Temperature {C}
  9.2,                                    !- Daily Dry-Bulb Temperature Range {deltaC}
  100663,                                 !- Barometric Pressure {Pa}
  0.6,                                    !- Wind Speed {m/s}
  260,                                    !- Wind Direction {deg}
  ,                                       !- Sky Clearness
  No,                                     !- Rain Indicator
  No,                                     !- Snow Indicator
  21,                                     !- Day of Month
  7,                                      !- Month
  SummerDesignDay,                        !- Day Type
  No,                                     !- Daylight Saving Time Indicator
  Wetbulb,                                !- Humidity Condition Type
  ,                                       !- Humidity Condition Day Schedule Name
  22.1,                                   !- Wetbulb or DewPoint at Maximum Dry-Bulb {C}
  ,                                       !- Humidity Ratio at Maximum Dry-Bulb {kgWater/kgDryAir}
  ,                                       !- Enthalpy at Maximum Dry-Bulb {J/kg}
  DefaultMultipliers,                     !- Dry-Bulb Temperature Range Modifier Type
  ,                                       !- Dry-Bulb Temperature Range Modifier Day Schedule Name
  ASHRAETau,                              !- Solar Model Indicator
  ,                                       !- Beam Solar Day Schedule Name
  ,                                       !- Diffuse Solar Day Schedule Name
  0.402,                                  !- ASHRAE Clear Sky Optical Depth for Beam Irradiance {dimensionless}
  2.401;                                  !- ASHRAE Clear Sky Optical Depth for Diffuse Irradiance {dimensionless}

OS:SizingPeriod:DesignDay,
  {c6ad7855-5e64-4f6a-992d-745ae0c7a5a0}, !- Handle
  LOS ANGELES USC  August .4% Condns DB=>MCWB, !- Name
  33.7,                                   !- Maximum Dry-Bulb Temperature {C}
  9.6,                                    !- Daily Dry-Bulb Temperature Range {deltaC}
  100663,                                 !- Barometric Pressure {Pa}
  0.6,                                    !- Wind Speed {m/s}
  260,                                    !- Wind Direction {deg}
  ,                                       !- Sky Clearness
  No,                                     !- Rain Indicator
  No,                                     !- Snow Indicator
  21,                                     !- Day of Month
  8,                                      !- Month
  SummerDesignDay,                        !- Day Type
  No,                                     !- Daylight Saving Time Indicator
  Wetbulb,                                !- Humidity Condition Type
  ,                                       !- Humidity Condition Day Schedule Name
  21.2,                                   !- Wetbulb or DewPoint at Maximum Dry-Bulb {C}
  ,                                       !- Humidity Ratio at Maximum Dry-Bulb {kgWater/kgDryAir}
  ,                                       !- Enthalpy at Maximum Dry-Bulb {J/kg}
  DefaultMultipliers,                     !- Dry-Bulb Temperature Range Modifier Type
  ,                                       !- Dry-Bulb Temperature Range Modifier Day Schedule Name
  ASHRAETau,                              !- Solar Model Indicator
  ,                                       !- Beam Solar Day Schedule Name
  ,                                       !- Diffuse Solar Day Schedule Name
  0.383,                                  !- ASHRAE Clear Sky Optical Depth for Beam Irradiance {dimensionless}
  2.433;                                  !- ASHRAE Clear Sky Optical Depth for Diffuse Irradiance {dimensionless}

OS:SizingPeriod:DesignDay,
  {ac3f1920-e521-4a66-b26e-a3c471b5157e}, !- Handle
  LOS ANGELES USC  September .4% Condns DB=>MCWB, !- Name
  36.3,                                   !- Maximum Dry-Bulb Temperature {C}
  9.8,                                    !- Daily Dry-Bulb Temperature Range {deltaC}
  100663,                                 !- Barometric Pressure {Pa}
  0.6,                                    !- Wind Speed {m/s}
  260,                                    !- Wind Direction {deg}
  ,                                       !- Sky Clearness
  No,                                     !- Rain Indicator
  No,                                     !- Snow Indicator
  21,                                     !- Day of Month
  9,                                      !- Month
  SummerDesignDay,                        !- Day Type
  No,                                     !- Daylight Saving Time Indicator
  Wetbulb,                                !- Humidity Condition Type
  ,                                       !- Humidity Condition Day Schedule Name
  20.1,                                   !- Wetbulb or DewPoint at Maximum Dry-Bulb {C}
  ,                                       !- Humidity Ratio at Maximum Dry-Bulb {kgWater/kgDryAir}
  ,                                       !- Enthalpy at Maximum Dry-Bulb {J/kg}
  DefaultMultipliers,                     !- Dry-Bulb Temperature Range Modifier Type
  ,                                       !- Dry-Bulb Temperature Range Modifier Day Schedule Name
  ASHRAETau,                              !- Solar Model Indicator
  ,                                       !- Beam Solar Day Schedule Name
  ,                                       !- Diffuse Solar Day Schedule Name
  0.369,                                  !- ASHRAE Clear Sky Optical Depth for Beam Irradiance {dimensionless}
  2.465;                                  !- ASHRAE Clear Sky Optical Depth for Diffuse Irradiance {dimensionless}

OS:SizingPeriod:DesignDay,
  {6dfd801e-2a8b-4f77-9525-9a99a506d050}, !- Handle
  LOS ANGELES USC  October .4% Condns DB=>MCWB, !- Name
  35.2,                                   !- Maximum Dry-Bulb Temperature {C}
  9.9,                                    !- Daily Dry-Bulb Temperature Range {deltaC}
  100663,                                 !- Barometric Pressure {Pa}
  0.6,                                    !- Wind Speed {m/s}
  260,                                    !- Wind Direction {deg}
  ,                                       !- Sky Clearness
  No,                                     !- Rain Indicator
  No,                                     !- Snow Indicator
  21,                                     !- Day of Month
  10,                                     !- Month
  SummerDesignDay,                        !- Day Type
  No,                                     !- Daylight Saving Time Indicator
  Wetbulb,                                !- Humidity Condition Type
  ,                                       !- Humidity Condition Day Schedule Name
  16.8,                                   !- Wetbulb or DewPoint at Maximum Dry-Bulb {C}
  ,                                       !- Humidity Ratio at Maximum Dry-Bulb {kgWater/kgDryAir}
  ,                                       !- Enthalpy at Maximum Dry-Bulb {J/kg}
  DefaultMultipliers,                     !- Dry-Bulb Temperature Range Modifier Type
  ,                                       !- Dry-Bulb Temperature Range Modifier Day Schedule Name
  ASHRAETau,                              !- Solar Model Indicator
  ,                                       !- Beam Solar Day Schedule Name
  ,                                       !- Diffuse Solar Day Schedule Name
  0.38,                                   !- ASHRAE Clear Sky Optical Depth for Beam Irradiance {dimensionless}
  2.397;                                  !- ASHRAE Clear Sky Optical Depth for Diffuse Irradiance {dimensionless}

OS:SizingPeriod:DesignDay,
  {a9c7b1bf-766d-4210-9583-d206b17f6dee}, !- Handle
  LOS ANGELES USC  November .4% Condns DB=>MCWB, !- Name
  31.9,                                   !- Maximum Dry-Bulb Temperature {C}
  10.4,                                   !- Daily Dry-Bulb Temperature Range {deltaC}
  100663,                                 !- Barometric Pressure {Pa}
  0.6,                                    !- Wind Speed {m/s}
  260,                                    !- Wind Direction {deg}
  ,                                       !- Sky Clearness
  No,                                     !- Rain Indicator
  No,                                     !- Snow Indicator
  21,                                     !- Day of Month
  11,                                     !- Month
  SummerDesignDay,                        !- Day Type
  No,                                     !- Daylight Saving Time Indicator
  Wetbulb,                                !- Humidity Condition Type
  ,                                       !- Humidity Condition Day Schedule Name
  15.4,                                   !- Wetbulb or DewPoint at Maximum Dry-Bulb {C}
  ,                                       !- Humidity Ratio at Maximum Dry-Bulb {kgWater/kgDryAir}
  ,                                       !- Enthalpy at Maximum Dry-Bulb {J/kg}
  DefaultMultipliers,                     !- Dry-Bulb Temperature Range Modifier Type
  ,                                       !- Dry-Bulb Temperature Range Modifier Day Schedule Name
  ASHRAETau,                              !- Solar Model Indicator
  ,                                       !- Beam Solar Day Schedule Name
  ,                                       !- Diffuse Solar Day Schedule Name
  0.325,                                  !- ASHRAE Clear Sky Optical Depth for Beam Irradiance {dimensionless}
  2.558;                                  !- ASHRAE Clear Sky Optical Depth for Diffuse Irradiance {dimensionless}

OS:WeatherFile,
  {1ffee433-0220-44ca-99e0-1c33ecac60a8}, !- Handle
  Usc Downtown La Campus,                 !- City
  CA,                                     !- State Province Region
  USA,                                    !- Country
  USC-DOWNTOWN-LA-CAMPUS,                 !- Data Source
  722874,                                 !- WMO Number
  34.024,                                 !- Latitude {deg}
  -118.291,                               !- Longitude {deg}
  -8,                                     !- Time Zone {hr}
  54.6,                                   !- Elevation {m}
  C:/Users/NeilBulger/Documents/CBECC 2025 Data/EPW25/CA_Title24_2025_LOS-ANGELES-USC.epw, !- Url
  FDD82080,                               !- Checksum
  ,                                       !- Start Date Actual Year
  Sunday;                                 !- Start Day of Week

OS:Sizing:Parameters,
  {132d41a7-c7f0-435b-a2ba-a035ce9ce3dc}, !- Handle
  1,                                      !- Heating Sizing Factor
  1;                                      !- Cooling Sizing Factor

OS:Material,
  {53009817-2750-4d3a-8490-d646d5c065e5}, !- Handle
  Stucco - 7/8 in.,                       !- Name
  MediumRough,                            !- Roughness
  0.022352,                               !- Thickness {m}
  0.700947539880412,                      !- Conductivity {W/m-K}
  1855.09824333832,                       !- Density {kg/m3}
  837.36,                                 !- Specific Heat {J/kg-K}
  0.9,                                    !- Thermal Absorptance
  0.7,                                    !- Solar Absorptance
  0.8;                                    !- Visible Absorptance

OS:Material,
  {e1d807aa-b87d-438c-970a-a8cb4ab1a678}, !- Handle
  Air - Metal Wall Framing - 16 or 24 in. OC, !- Name
  Smooth,                                 !- Roughness
  0.1397,                                 !- Thickness {m}
  1.22016793979183,                       !- Conductivity {W/m-K}
  1.28147706991681,                       !- Density {kg/m3}
  1004.832;                               !- Specific Heat {J/kg-K}

OS:Material,
  {a0eb5fa7-302f-4614-8f9f-4feea684a53f}, !- Handle
  Gypsum Board - 1/2 in.,                 !- Name
  Smooth,                                 !- Roughness
  0.0127,                                 !- Thickness {m}
  0.158656446866265,                      !- Conductivity {W/m-K}
  640.738534958406,                       !- Density {kg/m3}
  1130.436,                               !- Specific Heat {J/kg-K}
  0.9,                                    !- Thermal Absorptance
  0.7,                                    !- Solar Absorptance
  0.8;                                    !- Visible Absorptance

OS:Material,
  {fdc6b23d-676b-4387-9adb-bfb1afc7afb9}, !- Handle
  Gypsum Board - 5/8 in.,                 !- Name
  MediumRough,                            !- Roughness
  0.016002,                               !- Thickness {m}
  0.158656446866265,                      !- Conductivity {W/m-K}
  640.738534958406,                       !- Density {kg/m3}
  1130.436,                               !- Specific Heat {J/kg-K}
  0.9,                                    !- Thermal Absorptance
  0.7,                                    !- Solar Absorptance
  0.8;                                    !- Visible Absorptance

OS:Material,
  {bcdbd92f-1e2f-433a-a22a-dd580bc819b6}, !- Handle
  Metal Standing Seam - 1/16 in.,         !- Name
  MediumRough,                            !- Roughness
  0.0015875,                              !- Thickness {m}
  2.21534037295537,                       !- Conductivity {W/m-K}
  7820.53418843482,                       !- Density {kg/m3}
  502.416,                                !- Specific Heat {J/kg-K}
  0.75,                                   !- Thermal Absorptance
  0.37,                                   !- Solar Absorptance
  0.75;                                   !- Visible Absorptance

OS:Material,
  {54dca340-8e18-4cab-919b-49c0d6e9980d}, !- Handle
  Compliance Insulation R28.63,           !- Name
  Smooth,                                 !- Roughness
  0.11606149,                             !- Thickness {m}
  0.0230187710627394,                     !- Conductivity {W/m-K}
  16.0184633739601,                       !- Density {kg/m3}
  1130.436,                               !- Specific Heat {J/kg-K}
  0.9,                                    !- Thermal Absorptance
  0.7,                                    !- Solar Absorptance
  0.8;                                    !- Visible Absorptance

OS:Material,
  {89e53277-0ed8-4f39-a595-1d453813e6a0}, !- Handle
  Acoustic Tile - 3/4 in.,                !- Name
  MediumRough,                            !- Roughness
  0.01905,                                !- Thickness {m}
  0.0576334643901672,                     !- Conductivity {W/m-K}
  288.332340731282,                       !- Density {kg/m3}
  795.492,                                !- Specific Heat {J/kg-K}
  0.9,                                    !- Thermal Absorptance
  0.7,                                    !- Solar Absorptance
  0.8;                                    !- Visible Absorptance

OS:Material,
  {46adc76c-6f9e-4944-8925-f55ce186a111}, !- Handle
  Metal Deck - 1/16 in.,                  !- Name
  MediumRough,                            !- Roughness
  0.0015875,                              !- Thickness {m}
  45.3452482589303,                       !- Conductivity {W/m-K}
  7820.53418843482,                       !- Density {kg/m3}
  502.416,                                !- Specific Heat {J/kg-K}
  0.9,                                    !- Thermal Absorptance
  0.7,                                    !- Solar Absorptance
  0.8;                                    !- Visible Absorptance

OS:Material,
  {1b8aa7ae-3e05-4c66-8d1e-b3afcfbde070}, !- Handle
  Concrete - 140 lb/ft3 - 4 in.,          !- Name
  Smooth,                                 !- Roughness
  0.1016,                                 !- Thickness {m}
  1.95140333633374,                       !- Conductivity {W/m-K}
  2239.06081041215,                       !- Density {kg/m3}
  921.096;                                !- Specific Heat {J/kg-K}

OS:Material,
  {b6585a8e-af60-491e-8e95-335b0922e2bb}, !- Handle
  Carpet - 3/4 in.,                       !- Name
  Smooth,                                 !- Roughness
  0.01905,                                !- Thickness {m}
  0.0455183217255675,                     !- Conductivity {W/m-K}
  288.332340731282,                       !- Density {kg/m3}
  1381.644,                               !- Specific Heat {J/kg-K}
  0.9,                                    !- Thermal Absorptance
  0.7,                                    !- Solar Absorptance
  0.8;                                    !- Visible Absorptance

OS:Material,
  {43f026fb-19a1-4dff-9f86-7c686d1d4f0e}, !- Handle
  Compliance Insulation R14.60,           !- Name
  Smooth,                                 !- Roughness
  0.059186064,                            !- Thickness {m}
  0.0230187710627394,                     !- Conductivity {W/m-K}
  16.0184633739601,                       !- Density {kg/m3}
  1130.436;                               !- Specific Heat {J/kg-K}

OS:Material,
  {53a71884-57f3-4bab-848e-a78989665ede}, !- Handle
  Compliance Insulation R1.41,            !- Name
  Smooth,                                 !- Roughness
  0.0057159144,                           !- Thickness {m}
  0.0230187710627394,                     !- Conductivity {W/m-K}
  16.0184633739601,                       !- Density {kg/m3}
  1130.436;                               !- Specific Heat {J/kg-K}

OS:Material,
  {a383ac47-b373-4366-8df6-9f9940a2b472}, !- Handle
  Compliance Insulation R0.02,            !- Name
  Smooth,                                 !- Roughness
  8.10768e-05,                            !- Thickness {m}
  0.0230187710627394,                     !- Conductivity {W/m-K}
  16.0184633739601,                       !- Density {kg/m3}
  1130.436;                               !- Specific Heat {J/kg-K}

OS:Construction,
  {55ee5a3f-9e1e-4138-92c8-029948e399c7}, !- Handle
  Base_CZ12-NonresMetalFrameWallU055,     !- Name
  ,                                       !- Surface Rendering Name
  {53009817-2750-4d3a-8490-d646d5c065e5}, !- Layer 1
  {43f026fb-19a1-4dff-9f86-7c686d1d4f0e}, !- Layer 2
  {53a71884-57f3-4bab-848e-a78989665ede}, !- Layer 3
  {a383ac47-b373-4366-8df6-9f9940a2b472}, !- Layer 4
  {a383ac47-b373-4366-8df6-9f9940a2b472}, !- Layer 5
  {e1d807aa-b87d-438c-970a-a8cb4ab1a678}, !- Layer 6
  {a0eb5fa7-302f-4614-8f9f-4feea684a53f}; !- Layer 7

OS:Construction,
  {4bc50e26-4a9e-4406-b6c4-f8cf58ffb9cf}, !- Handle
  NACM_Interior Wall,                     !- Name
  ,                                       !- Surface Rendering Name
  {fdc6b23d-676b-4387-9adb-bfb1afc7afb9}, !- Layer 1
  {d4004f67-4c7a-4d00-92bb-67275e21822d}, !- Layer 2
  {fdc6b23d-676b-4387-9adb-bfb1afc7afb9}; !- Layer 3

OS:Material,
  {d4004f67-4c7a-4d00-92bb-67275e21822d}, !- Handle
  Air - Metal Wall Framing - 16 or 24 in. OC 1, !- Name
  Smooth,                                 !- Roughness
  0.1397,                                 !- Thickness {m}
  1.22016793979183,                       !- Conductivity {W/m-K}
  1.28147706991681,                       !- Density {kg/m3}
  1004.832;                               !- Specific Heat {J/kg-K}

OS:Construction,
  {26e3aaf1-5054-4d45-903a-58ce139ca887}, !- Handle
  Base_CZ12-FlatNonresWoodFramingAndOtherRoofU034, !- Name
  ,                                       !- Surface Rendering Name
  {bcdbd92f-1e2f-433a-a22a-dd580bc819b6}, !- Layer 1
  {54dca340-8e18-4cab-919b-49c0d6e9980d}; !- Layer 2

OS:Construction,
  {286942dc-af91-4fab-b73d-aaf39ed8c62f}, !- Handle
  NACM_Drop Ceiling,                      !- Name
  ,                                       !- Surface Rendering Name
  {89e53277-0ed8-4f39-a595-1d453813e6a0}; !- Layer 1

OS:Construction,
  {a46e6683-c013-429a-a0d1-6538bbd11839}, !- Handle
  NACM_Interior Floor,                    !- Name
  ,                                       !- Surface Rendering Name
  {46adc76c-6f9e-4944-8925-f55ce186a111}, !- Layer 1
  {1b8aa7ae-3e05-4c66-8d1e-b3afcfbde070}, !- Layer 2
  {b6585a8e-af60-491e-8e95-335b0922e2bb}; !- Layer 3

OS:WindowMaterial:SimpleGlazingSystem,
  {ed0d6c1b-ce3d-4d1d-ae1e-01fc0e38971e}, !- Handle
  Base_AllCZ_FixedWindowU34 Material,     !- Name
  1.93060953597858,                       !- U-Factor {W/m2-K}
  0.22,                                   !- Solar Heat Gain Coefficient
  0.42;                                   !- Visible Transmittance

OS:Construction,
  {25d6c247-0cc7-4220-8852-109a85187586}, !- Handle
  Base_AllCZ_FixedWindowU34,              !- Name
  ,                                       !- Surface Rendering Name
  {ed0d6c1b-ce3d-4d1d-ae1e-01fc0e38971e}; !- Layer 1

OS:Curve:Biquadratic,
  {6da3fdfd-be37-4ba4-9e91-594abbec1dbe}, !- Handle
  CoilClgDXQRatio_fTwbToadbSI,            !- Name
  0.86779,                                !- Coefficient1 Constant
  0.014245,                               !- Coefficient2 x
  0.000554,                               !- Coefficient3 x**2
  -0.007569,                              !- Coefficient4 y
  3.2e-05,                                !- Coefficient5 y**2
  -0.000191,                              !- Coefficient6 x*y
  13.89,                                  !- Minimum Value of x
  25,                                     !- Maximum Value of x
  23.89,                                  !- Minimum Value of y
  46.11,                                  !- Maximum Value of y
  0.77,                                   !- Minimum Curve Output
  1.29;                                   !- Maximum Curve Output

OS:Curve:Biquadratic,
  {a1bf36e7-d602-48d5-9c93-994377524d02}, !- Handle
  CoilClgDXEIRRatio_fTwbToadbSI,          !- Name
  0.116709,                               !- Coefficient1 Constant
  0.028458,                               !- Coefficient2 x
  -0.000411,                              !- Coefficient3 x**2
  0.021422,                               !- Coefficient4 y
  0.000162,                               !- Coefficient5 y**2
  -0.00068,                               !- Coefficient6 x*y
  13.89,                                  !- Minimum Value of x
  25,                                     !- Maximum Value of x
  23.89,                                  !- Minimum Value of y
  46.11,                                  !- Maximum Value of y
  0.77,                                   !- Minimum Curve Output
  1.33;                                   !- Maximum Curve Output

OS:Curve:Biquadratic,
  {4761e0f9-1a40-4f70-a55c-c308e74c556b}, !- Handle
  HtPumpHtgQRatio_fTlwTdbSI,              !- Name
  0.794901,                               !- Coefficient1 Constant
  0.003885,                               !- Coefficient2 x
  -5.8e-05,                               !- Coefficient3 x**2
  0.027811,                               !- Coefficient4 y
  0.000318,                               !- Coefficient5 y**2
  -0.000131,                              !- Coefficient6 x*y
  15,                                     !- Minimum Value of x
  70,                                     !- Maximum Value of x
  -17,                                    !- Minimum Value of y
  37.22,                                  !- Maximum Value of y
  ,                                       !- Minimum Curve Output
  1.55;                                   !- Maximum Curve Output

OS:Curve:Biquadratic,