
OS:Version,
  {aa8172a5-2b79-438a-968c-1c75a80ec3fc}, !- Handle
  3.10.0;                                 !- Version Identifier

OS:SimulationControl,
  {bb2598bf-e630-49aa-8100-ff997a7dfc5e}, !- Handle
  ,                                       !- Do Zone Sizing Calculation
  ,                                       !- Do System Sizing Calculation
  ,                                       !- Do Plant Sizing Calculation
  No,                                     !- Run Simulation for Sizing Periods
  Yes,                                    !- Run Simulation for Weather File Run Periods
  ,                                       !- Loads Convergence Tolerance Value {W}
  ,                                       !- Temperature Convergence Tolerance Value {deltaC}
  FullExterior,                           !- Solar Distribution
  50;                                     !- Maximum Number of Warmup Days

OS:YearDescription,
  {1e33199d-d4ab-400d-845d-f0ed2e0739df}, !- Handle
  2009,                                   !- Calendar Year
  ,                                       !- Day of Week for Start Day
  ;                                       !- Is Leap Year

OS:RunPeriod,
  {a91c6eb9-a68a-4124-82df-8647c8181830}, !- Handle
  CA_Title24_2025_LOS-ANGELES-USC,        !- Name
  1,                                      !- Begin Month
  1,                                      !- Begin Day of Month
  12,                                     !- End Month
  31,                                     !- End Day of Month
  No,                                     !- Use Weather File Holidays and Special Days
  No,                                     !- Use Weather File Daylight Saving Period
  Yes,                                    !- Apply Weekend Holiday Rule
  ,                                       !- Use Weather File Rain Indicators
  ,                                       !- Use Weather File Snow Indicators
  ;                                       !- Number of Times Runperiod to be Repeated

OS:Site,
  {16c81b69-791d-4042-8f5a-afd7fec54696}, !- Handle
  LOS ANGELES USC,                        !- Name
  38.69,                                  !- Latitude {deg}
  -121.6,                                 !- Longitude {deg}
  -8,                                     !- Time Zone {hr}
  54.5592,                                !- Elevation {m}
  Suburbs;                                !- Terrain

OS:SizingPeriod:DesignDay,
  {043fe47d-d925-40e5-a436-b67ce5c6a9ea}, !- Handle
  LOS ANGELES USC Ann Htg 99.6% Condns DB, !- Name
  6.2,                                    !- Maximum Dry-Bulb Temperature {C}
  0,                                      !- Daily Dry-Bulb Temperature Range {deltaC}
  100663,                                 !- Barometric Pressure {Pa}
  0.6,                                    !- Wind Speed {m/s}
  20,                                     !- Wind Direction {deg}
  0,                                      !- Sky Clearness
  No,                                     !- Rain Indicator
  No,                                     !- Snow Indicator
  21,                                     !- Day of Month
  12,                                     !- Month
  WinterDesignDay,                        !- Day Type
  No,                                     !- Daylight Saving Time Indicator
  Wetbulb,                                !- Humidity Condition Type
  ,                                       !- Humidity Condition Day Schedule Name
  6.2,                                    !- Wetbulb or DewPoint at Maximum Dry-Bulb {C}
  ,                                       !- Humidity Ratio at Maximum Dry-Bulb {kgWater/kgDryAir}
  ,                                       !- Enthalpy at Maximum Dry-Bulb {J/kg}
  DefaultMultipliers,                     !- Dry-Bulb Temperature Range Modifier Type
  ,                                       !- Dry-Bulb Temperature Range Modifier Day Schedule Name
  ASHRAEClearSky;                         !- Solar Model Indicator

OS:SizingPeriod:DesignDay,
  {13962418-e803-41f7-8fca-c72f4e5c9623}, !- Handle
  LOS ANGELES USC  June .4% Condns DB=>MCWB, !- Name
  32.3,                                   !- Maximum Dry-Bulb Temperature {C}
  8.2,                                    !- Daily Dry-Bulb Temperature Range {deltaC}
  100663,                                 !- Barometric Pressure {Pa}
  0.6,                                    !- Wind Speed {m/s}
  260,                                    !- Wind Direction {deg}
  ,                                       !- Sky Clearness
  No,                                     !- Rain Indicator
  No,                                     !- Snow Indicator
  21,                                     !- Day of Month
  6,                                      !- Month
  SummerDesignDay,                        !- Day Type
  No,                                     !- Daylight Saving Time Indicator
  Wetbulb,                                !- Humidity Condition Type
  ,                                       !- Humidity Condition Day Schedule Name
  20.7,                                   !- Wetbulb or DewPoint at Maximum Dry-Bulb {C}
  ,                                       !- Humidity Ratio at Maximum Dry-Bulb {kgWater/kgDryAir}
  ,                                       !- Enthalpy at Maximum Dry-Bulb {J/kg}
  DefaultMultipliers,                     !- Dry-Bulb Temperature Range Modifier Type
  ,                                       !- Dry-Bulb Temperature Range Modifier Day Schedule Name
  ASHRAETau,                              !- Solar Model Indicator
  ,                                       !- Beam Solar Day Schedule Name
  ,                                       !- Diffuse Solar Day Schedule Name
  0.405,                                  !- ASHRAE Clear Sky Optical Depth for Beam Irradiance {dimensionless}
  2.324;                                  !- ASHRAE Clear Sky Optical Depth for Diffuse Irradiance {dimensionless}

OS:SizingPeriod:DesignDay,
  {03110a91-e13c-466d-aba0-20c5552787db}, !- Handle
  LOS ANGELES USC  July .4% Condns DB=>MCWB, !- Name
  33.8,                                   !- Maximum Dry-Bulb Temperature {C}
  9.2,                                    !- Daily Dry-Bulb Temperature Range {deltaC}
  100663,                                 !- Barometric Pressure {Pa}
  0.6,                                    !- Wind Speed {m/s}
  260,                                    !- Wind Direction {deg}
  ,                                       !- Sky Clearness
  No,                                     !- Rain Indicator
  No,                                     !- Snow Indicator
  21,                                     !- Day of Month
  7,                                      !- Month
  SummerDesignDay,                        !- Day Type
  No,                                     !- Daylight Saving Time Indicator
  Wetbulb,                                !- Humidity Condition Type
  ,                                       !- Humidity Condition Day Schedule Name
  22.1,                                   !- Wetbulb or DewPoint at Maximum Dry-Bulb {C}
  ,                                       !- Humidity Ratio at Maximum Dry-Bulb {kgWater/kgDryAir}
  ,                                       !- Enthalpy at Maximum Dry-Bulb {J/kg}
  DefaultMultipliers,                     !- Dry-Bulb Temperature Range Modifier Type
  ,                                       !- Dry-Bulb Temperature Range Modifier Day Schedule Name
  ASHRAETau,                              !- Solar Model Indicator
  ,                                       !- Beam Solar Day Schedule Name
  ,                                       !- Diffuse Solar Day Schedule Name
  0.402,                                  !- ASHRAE Clear Sky Optical Depth for Beam Irradiance {dimensionless}
  2.401;                                  !- ASHRAE Clear Sky Optical Depth for Diffuse Irradiance {dimensionless}

OS:SizingPeriod:DesignDay,
  {e6a15448-268a-4a72-a274-e4a10fc09f8e}, !- Handle
  LOS ANGELES USC  August .4% Condns DB=>MCWB, !- Name
  33.7,                                   !- Maximum Dry-Bulb Temperature {C}
  9.6,                                    !- Daily Dry-Bulb Temperature Range {deltaC}
  100663,                                 !- Barometric Pressure {Pa}
  0.6,                                    !- Wind Speed {m/s}
  260,                                    !- Wind Direction {deg}
  ,                                       !- Sky Clearness
  No,                                     !- Rain Indicator
  No,                                     !- Snow Indicator
  21,                                     !- Day of Month
  8,                                      !- Month
  SummerDesignDay,                        !- Day Type
  No,                                     !- Daylight Saving Time Indicator
  Wetbulb,                                !- Humidity Condition Type
  ,                                       !- Humidity Condition Day Schedule Name
  21.2,                                   !- Wetbulb or DewPoint at Maximum Dry-Bulb {C}
  ,                                       !- Humidity Ratio at Maximum Dry-Bulb {kgWater/kgDryAir}
  ,                                       !- Enthalpy at Maximum Dry-Bulb {J/kg}
  DefaultMultipliers,                     !- Dry-Bulb Temperature Range Modifier Type
  ,                                       !- Dry-Bulb Temperature Range Modifier Day Schedule Name
  ASHRAETau,                              !- Solar Model Indicator
  ,                                       !- Beam Solar Day Schedule Name
  ,                                       !- Diffuse Solar Day Schedule Name
  0.383,                                  !- ASHRAE Clear Sky Optical Depth for Beam Irradiance {dimensionless}
  2.433;                                  !- ASHRAE Clear Sky Optical Depth for Diffuse Irradiance {dimensionless}

OS:SizingPeriod:DesignDay,
  {e73c774a-955f-49ab-b349-a93f3123bc33}, !- Handle
  LOS ANGELES USC  September .4% Condns DB=>MCWB, !- Name
  36.3,                                   !- Maximum Dry-Bulb Temperature {C}
  9.8,                                    !- Daily Dry-Bulb Temperature Range {deltaC}
  100663,                                 !- Barometric Pressure {Pa}
  0.6,                                    !- Wind Speed {m/s}
  260,                                    !- Wind Direction {deg}
  ,                                       !- Sky Clearness
  No,                                     !- Rain Indicator
  No,                                     !- Snow Indicator
  21,                                     !- Day of Month
  9,                                      !- Month
  SummerDesignDay,                        !- Day Type
  No,                                     !- Daylight Saving Time Indicator
  Wetbulb,                                !- Humidity Condition Type
  ,                                       !- Humidity Condition Day Schedule Name
  20.1,                                   !- Wetbulb or DewPoint at Maximum Dry-Bulb {C}
  ,                                       !- Humidity Ratio at Maximum Dry-Bulb {kgWater/kgDryAir}
  ,                                       !- Enthalpy at Maximum Dry-Bulb {J/kg}
  DefaultMultipliers,                     !- Dry-Bulb Temperature Range Modifier Type
  ,                                       !- Dry-Bulb Temperature Range Modifier Day Schedule Name
  ASHRAETau,                              !- Solar Model Indicator
  ,                                       !- Beam Solar Day Schedule Name
  ,                                       !- Diffuse Solar Day Schedule Name
  0.369,                                  !- ASHRAE Clear Sky Optical Depth for Beam Irradiance {dimensionless}
  2.465;                                  !- ASHRAE Clear Sky Optical Depth for Diffuse Irradiance {dimensionless}

OS:SizingPeriod:DesignDay,
  {2e103491-d884-4aef-b3b6-3b386d86ebce}, !- Handle
  LOS ANGELES USC  October .4% Condns DB=>MCWB, !- Name
  35.2,                                   !- Maximum Dry-Bulb Temperature {C}
  9.9,                                    !- Daily Dry-Bulb Temperature Range {deltaC}
  100663,                                 !- Barometric Pressure {Pa}
  0.6,                                    !- Wind Speed {m/s}
  260,                                    !- Wind Direction {deg}
  ,                                       !- Sky Clearness
  No,                                     !- Rain Indicator
  No,                                     !- Snow Indicator
  21,                                     !- Day of Month
  10,                                     !- Month
  SummerDesignDay,                        !- Day Type
  No,                                     !- Daylight Saving Time Indicator
  Wetbulb,                                !- Humidity Condition Type
  ,                                       !- Humidity Condition Day Schedule Name
  16.8,                                   !- Wetbulb or DewPoint at Maximum Dry-Bulb {C}
  ,                                       !- Humidity Ratio at Maximum Dry-Bulb {kgWater/kgDryAir}
  ,                                       !- Enthalpy at Maximum Dry-Bulb {J/kg}
  DefaultMultipliers,                     !- Dry-Bulb Temperature Range Modifier Type
  ,                                       !- Dry-Bulb Temperature Range Modifier Day Schedule Name
  ASHRAETau,                              !- Solar Model Indicator
  ,                                       !- Beam Solar Day Schedule Name
  ,                                       !- Diffuse Solar Day Schedule Name
  0.38,                                   !- ASHRAE Clear Sky Optical Depth for Beam Irradiance {dimensionless}
  2.397;                                  !- ASHRAE Clear Sky Optical Depth for Diffuse Irradiance {dimensionless}

OS:SizingPeriod:DesignDay,
  {ac7887b0-e684-4284-b9b9-23bc615c1db3}, !- Handle
  LOS ANGELES USC  November .4% Condns DB=>MCWB, !- Name
  31.9,                                   !- Maximum Dry-Bulb Temperature {C}
  10.4,                                   !- Daily Dry-Bulb Temperature Range {deltaC}
  100663,                                 !- Barometric Pressure {Pa}
  0.6,                                    !- Wind Speed {m/s}
  260,                                    !- Wind Direction {deg}
  ,                                       !- Sky Clearness
  No,                                     !- Rain Indicator
  No,                                     !- Snow Indicator
  21,                                     !- Day of Month
  11,                                     !- Month
  SummerDesignDay,                        !- Day Type
  No,                                     !- Daylight Saving Time Indicator
  Wetbulb,                                !- Humidity Condition Type
  ,                                       !- Humidity Condition Day Schedule Name
  15.4,                                   !- Wetbulb or DewPoint at Maximum Dry-Bulb {C}
  ,                                       !- Humidity Ratio at Maximum Dry-Bulb {kgWater/kgDryAir}
  ,                                       !- Enthalpy at Maximum Dry-Bulb {J/kg}
  DefaultMultipliers,                     !- Dry-Bulb Temperature Range Modifier Type
  ,                                       !- Dry-Bulb Temperature Range Modifier Day Schedule Name
  ASHRAETau,                              !- Solar Model Indicator
  ,                                       !- Beam Solar Day Schedule Name
  ,                                       !- Diffuse Solar Day Schedule Name
  0.325,                                  !- ASHRAE Clear Sky Optical Depth for Beam Irradiance {dimensionless}
  2.558;                                  !- ASHRAE Clear Sky Optical Depth for Diffuse Irradiance {dimensionless}

OS:WeatherFile,
  {5656af4a-333e-41ae-92e6-07af1a779fc9}, !- Handle
  Usc Downtown La Campus,                 !- City
  CA,                                     !- State Province Region
  USA,                                    !- Country
  USC-DOWNTOWN-LA-CAMPUS,                 !- Data Source
  722874,                                 !- WMO Number
  34.024,                                 !- Latitude {deg}
  -118.291,                               !- Longitude {deg}
  -8,                                     !- Time Zone {hr}
  54.6,                                   !- Elevation {m}
  C:/Users/FatimaSaeed/Documents/CBECC 2025 Data/EPW25/CA_Title24_2025_LOS-ANGELES-USC.epw, !- Url
  FDD82080,                               !- Checksum
  ,                                       !- Start Date Actual Year
  Sunday;                                 !- Start Day of Week

OS:Sizing:Parameters,
  {71584fd2-8b9e-4703-95f5-5b259c5fb011}, !- Handle
  1,                                      !- Heating Sizing Factor
  1;                                      !- Cooling Sizing Factor

OS:Material,
  {85ba7487-4f7a-4daa-b829-fcadf8f96ca5}, !- Handle
  1/2IN Gypsum,                           !- Name
  Smooth,                                 !- Roughness
  0.0127,                                 !- Thickness {m}
  0.158656446866265,                      !- Conductivity {W/m-K}
  640.738534958406,                       !- Density {kg/m3}
  1130.436,                               !- Specific Heat {J/kg-K}
  0.9,                                    !- Thermal Absorptance
  0.7,                                    !- Solar Absorptance
  0.8;                                    !- Visible Absorptance

OS:Material,
  {6892f636-0493-4c1e-bd54-7e48c207debb}, !- Handle
  1IN Stucco,                             !- Name
  MediumRough,                            !- Roughness
  0.0254,                                 !- Thickness {m}
  0.0359992810605248,                     !- Conductivity {W/m-K}
  24.0276950609402,                       !- Density {kg/m3}
  1465.38,                                !- Specific Heat {J/kg-K}
  0.9,                                    !- Thermal Absorptance
  0.7,                                    !- Solar Absorptance
  0.8;                                    !- Visible Absorptance

OS:Material,
  {c779a29c-40f0-430d-a448-9438ddcb9229}, !- Handle
  CP02 CARPET PAD,                        !- Name
  Smooth,                                 !- Roughness
  0.01905,                                !- Thickness {m}
  0.0455183217255675,                     !- Conductivity {W/m-K}
  288.332340731282,                       !- Density {kg/m3}
  1381.644,                               !- Specific Heat {J/kg-K}
  0.9,                                    !- Thermal Absorptance
  0.7,                                    !- Solar Absorptance
  0.8;                                    !- Visible Absorptance

OS:Material,
  {2e4f8ae8-6ff9-48a8-9f9b-bd43be908cdf}, !- Handle
  F04 Wall air space resistance,          !- Name
  Smooth,                                 !- Roughness
  0.1524,                                 !- Thickness {m}
  0.940308144239574,                      !- Conductivity {W/m-K}
  1.28147706991681,                       !- Density {kg/m3}
  1004.832;                               !- Specific Heat {J/kg-K}

OS:Material,
  {3483bb79-d5ae-4900-b442-5d49abd3ebab}, !- Handle
  G01a 19mm gypsum board,                 !- Name
  MediumRough,                            !- Roughness
  0.01905,                                !- Thickness {m}
  0.158656446866265,                      !- Conductivity {W/m-K}
  640.738534958406,                       !- Density {kg/m3}
  1130.436,                               !- Specific Heat {J/kg-K}
  0.9,                                    !- Thermal Absorptance
  0.7,                                    !- Solar Absorptance
  0.8;                                    !- Visible Absorptance

OS:Material,
  {c8d4a282-939e-4e4f-97d1-468c18f32cfa}, !- Handle
  I01 25mm insulation board,              !- Name
  Smooth,                                 !- Roughness
  0.0889,                                 !- Thickness {m}
  0.0458644686588418,                     !- Conductivity {W/m-K}
  11.2129243617721,                       !- Density {kg/m3}
  837.36;                                 !- Specific Heat {J/kg-K}

OS:Material,
  {c2a3bd32-c51c-4eb6-8e57-80a5df62ecff}, !- Handle
  Metal Decking,                          !- Name
  Smooth,                                 !- Roughness
  0.0015875,                              !- Thickness {m}
  45.3452482589303,                       !- Conductivity {W/m-K}
  7820.53418843482,                       !- Density {kg/m3}
  502.416,                                !- Specific Heat {J/kg-K}
  0.9,                                    !- Thermal Absorptance
  0.7,                                    !- Solar Absorptance
  0.8;                                    !- Visible Absorptance

OS:Material,
  {3e196c6d-d4da-4894-85e8-96a06d14d675}, !- Handle
  Roof Membrane,                          !- Name
  MediumRough,                            !- Roughness
  0.001524,                               !- Thickness {m}
  1.19714916872909,                       !- Conductivity {W/m-K}
  230.665872585026,                       !- Density {kg/m3}
  1256.04,                                !- Specific Heat {J/kg-K}
  0.85,                                   !- Thermal Absorptance
  0.92,                                   !- Solar Absorptance
  0.85;                                   !- Visible Absorptance

OS:Material:NoMass,
  {aec5b812-8bb9-48f5-bf2a-68e5bae8eb23}, !- Handle
  Metal Framed Wall - 16 in oc 5 in depth R-21 ins, !- Name
  Smooth,                                 !- Roughness
  0.718177329056445;                      !- Thermal Resistance {m2-K/W}

OS:Material,
  {d8fb4aef-8ef9-4602-84b6-4361f6448dcd}, !- Handle
  Wall Ext - Board Insulation,            !- Name
  Smooth,                                 !- Roughness
  0.03243072,                             !- Thickness {m}
  0.0230187710627394,                     !- Conductivity {W/m-K}
  16.0184633739601,                       !- Density {kg/m3}
  1130.436;                               !- Specific Heat {J/kg-K}

OS:Material,
  {e19034de-603e-4edf-aa10-83bfcafd0f7c}, !- Handle
  Roof Insulation R-35,                   !- Name
  Smooth,                                 !- Roughness
  0.141600682,                            !- Thickness {m}
  0.0230187710627394,                     !- Conductivity {W/m-K}
  16.0184633739601,                       !- Density {kg/m3}
  1130.436;                               !- Specific Heat {J/kg-K}

OS:Material,
  {3d9cfbb0-60be-4d7a-ad11-3210e85029ba}, !- Handle
  Floor Insulation R-20,                  !- Name
  MediumRough,                            !- Roughness
  0.0810768,                              !- Thickness {m}
  0.0230187710627394,                     !- Conductivity {W/m-K}
  16.0184633739601,                       !- Density {kg/m3}
  1130.436,                               !- Specific Heat {J/kg-K}
  0.9,                                    !- Thermal Absorptance
  0.7,                                    !- Solar Absorptance
  0.8;                                    !- Visible Absorptance

OS:Construction,
  {5f8b8312-6b0c-4074-b30d-986815a5fd23}, !- Handle
  FlatNonresWoodFramingAndOtherRoofU028,  !- Name
  ,                                       !- Surface Rendering Name
  {3e196c6d-d4da-4894-85e8-96a06d14d675}, !- Layer 1
  {e19034de-603e-4edf-aa10-83bfcafd0f7c}, !- Layer 2
  {c2a3bd32-c51c-4eb6-8e57-80a5df62ecff}; !- Layer 3

OS:Construction,
  {12c721a5-0ea4-4123-a26d-b6deca51acd7}, !- Handle
  MetalFrameWallU055,                     !- Name
  ,                                       !- Surface Rendering Name
  {6892f636-0493-4c1e-bd54-7e48c207debb}, !- Layer 1
  {85ba7487-4f7a-4daa-b829-fcadf8f96ca5}, !- Layer 2
  {d8fb4aef-8ef9-4602-84b6-4361f6448dcd}, !- Layer 3
  {85ba7487-4f7a-4daa-b829-fcadf8f96ca5}, !- Layer 4
  {aec5b812-8bb9-48f5-bf2a-68e5bae8eb23}, !- Layer 5
  {85ba7487-4f7a-4daa-b829-fcadf8f96ca5}; !- Layer 6

OS:Construction,
  {04a7d30f-1587-4c8c-8715-28d3622fb538}, !- Handle
  ExtSlabCarpet 4in ClimateZone 1-8,      !- Name
  ,                                       !- Surface Rendering Name
  {3d9cfbb0-60be-4d7a-ad11-3210e85029ba}, !- Layer 1
  {9ccbe53d-2b9e-4ea4-a475-c58f4268cbc4}, !- Layer 2
  {c779a29c-40f0-430d-a448-9438ddcb9229}; !- Layer 3

OS:Material,
  {9ccbe53d-2b9e-4ea4-a475-c58f4268cbc4}, !- Handle
  1/2IN Gypsum 1,                         !- Name
  Smooth,                                 !- Roughness
  0.0127,                                 !- Thickness {m}
  0.158656446866265,                      !- Conductivity {W/m-K}
  640.738534958406,                       !- Density {kg/m3}
  1130.436,                               !- Specific Heat {J/kg-K}
  0.9,                                    !- Thermal Absorptance
  0.7,                                    !- Solar Absorptance
  0.8;                                    !- Visible Absorptance

OS:Construction,
  {89253780-fe85-48fe-9058-2d5642b259b5}, !- Handle
  Interior Wall,                          !- Name
  ,                                       !- Surface Rendering Name
  {3483bb79-d5ae-4900-b442-5d49abd3ebab}, !- Layer 1
  {2e4f8ae8-6ff9-48a8-9f9b-bd43be908cdf}, !- Layer 2
  {c8d4a282-939e-4e4f-97d1-468c18f32cfa}, !- Layer 3
  {3483bb79-d5ae-4900-b442-5d49abd3ebab}; !- Layer 4

OS:Material:NoMass,
  {58e39175-702a-4c0a-a1c0-e2ef67511075}, !- Handle
  Exterior Door Material,                 !- Name
  MediumSmooth,                           !- Roughness
  0.101893286975538;                      !- Thermal Resistance {m2-K/W}

OS:Construction,
  {5f84acc3-6edf-4ea2-b4b3-593f8a67f547}, !- Handle
  Exterior Door,                          !- Name
  ,                                       !- Surface Rendering Name
  {58e39175-702a-4c0a-a1c0-e2ef67511075}; !- Layer 1

OS:Material:NoMass,
  {cf52caa7-7c27-4b02-a826-67cebfa49123}, !- Handle
  Interior Door Material,                 !- Name
  MediumSmooth,                           !- Roughness
  0.290582769492295;                      !- Thermal Resistance {m2-K/W}

OS:Construction,
  {d7d26262-200f-41f6-bfbb-5bbed29b1936}, !- Handle
  Interior Door,                          !- Name
  ,                                       !- Surface Rendering Name
  {cf52caa7-7c27-4b02-a826-67cebfa49123}; !- Layer 1

OS:WindowMaterial:SimpleGlazingSystem,
  {a92d6324-5952-4c26-880c-f45afe3de70a}, !- Handle
  Exterior Window - Fixed Material,       !- Name
  1.93060953597858,                       !- U-Factor {W/m2-K}
  0.22,                                   !- Solar Heat Gain Coefficient
  0.42;                                   !- Visible Transmittance

OS:Construction,
  {23fee20a-2790-4f78-bc44-286a4a4671b6}, !- Handle
  Exterior Window - Fixed,                !- Name
  ,                                       !- Surface Rendering Name
  {a92d6324-5952-4c26-880c-f45afe3de70a}; !- Layer 1

OS:WindowMaterial:SimpleGlazingSystem,
  {3b2b7d01-9b6b-44ad-85a5-8ebca2e4abaf}, !- Handle
  Skylight - Fixed Material,              !- Name
  3.29339273784581,                       !- U-Factor {W/m2-K}
  0.25,                                   !- Solar Heat Gain Coefficient
  0.49;                                   !- Visible Transmittance

OS:Construction,
  {fba6a609-c166-4906-96a0-94c6322ac0ff}, !- Handle
  Skylight - Fixed,                       !- Name
  ,                                       !- Surface Rendering Name
  {3b2b7d01-9b6b-44ad-85a5-8ebca2e4abaf}; !- Layer 1

OS:Curve:Biquadratic,
  {30c2b449-4281-4cd6-8146-721cb62a5fb8}, !- Handle
  VRFSysDefEIRRatio_fToadbTwbSI,          !- Name
  1,                                      !- Coefficient1 Constant
  0,                                      !- Coefficient2 x
  0,                                      !- Coefficient3 x**2
  0,                                      !- Coefficient4 y
  0,                                      !- Coefficient5 y**2
  0,                                      !- Coefficient6 x*y
  0,                                      !- Minimum Value of x
  100,                                    !- Maximum Value of x
  0,                                      !- Minimum Value of y
  100;                                    !- Maximum Value of y

OS:Curve:Biquadratic,
  {e94cd9ac-dbea-40c0-9ebf-23457d7e1729}, !- Handle
  EPDef-VRFSysClgQRatio_fTwbToadbLowSI,   !- Name
  0.576883,                               !- Coefficient1 Constant
  0.017448,                               !- Coefficient2 x
  0.000583,                               !- Coefficient3 x**2
  -2e-06,                                 !- Coefficient4 y
  0,                                      !- Coefficient5 y**2
  0,                                      !- Coefficient6 x*y
  15,                                     !- Minimum Value of x
  24,                                     !- Maximum Value of x
  -5,                                     !- Minimum Value of y
  23;                                     !- Maximum Value of y

OS:Curve:Biquadratic,
  {ac841f1b-a2c9-4af2-ac8d-e1886e41dddb}, !- Handle
  EPDef-VRFSysClgQRatio_fTwbToadbHiSI,    !- Name
  0.686736,                               !- Coefficient1 Constant
  0.020763,                               !- Coefficient2 x
  0.000545,                               !- Coefficient3 x**2
  -0.001622,                              !- Coefficient4 y